version 2
run General-356-20240201-11:04:28-40057
attr configname General
attr datetime 20240201-11:04:28
attr experiment General
attr inifile main.ini
attr iterationvars "$0=1.2, $1=3.5, $2=70"
attr iterationvarsf 1.2,3.5,70-
attr measurement "$0=1.2, $1=3.5, $2=70"
attr network Rete
attr processid 40057
attr repetition 16
attr replication #16
attr resultdir results
attr runnumber 356
attr seedset 356
param Rete.lambda 1.2
param Rete.a 0.3s
param Rete.b 3.5s
param Rete.c 0.1s
param Rete.d 0.3s
param Rete.mu 3.0
param Rete.source2.interArrivalTime exponential(1s/lambda)
param Rete.source2.jobServiceTime exponential(1s/mu)
param Rete.source2.deadline uniform(a,b)
param Rete.server2.j 70
param Rete.server2.V uniform(c,d)

vector 0 Rete.passiveQueue queueLength:vector ETV
attr interpolationmode sample-hold
attr title "queue length, vector"
vector 1 Rete.sink lifeTime:vector ETV
attr interpolationmode none
attr title "lifetime of arrived jobs, vector"
attr unit s
vector 2 Rete.sink totalQueueingTime:vector ETV
attr interpolationmode none
attr title "the total time spent in queues by arrived jobs, vector"
attr unit s
vector 3 Rete.sink queuesVisited:vector ETV
attr interpolationmode none
attr title "the total number of queues visited by arrived jobs, vector"
vector 4 Rete.sink totalServiceTime:vector ETV
attr interpolationmode none
attr title "the total time spent  by arrived jobs, vector"
attr unit s
vector 5 Rete.sink totalDelayTime:vector ETV
attr interpolationmode none
attr title "the total time spent in delay nodes by arrived jobs, vector"
attr unit s
vector 6 Rete.sink delaysVisited:vector ETV
attr interpolationmode none
attr title "the total number of delays visited by arrived jobs, vector"
vector 7 Rete.sink generation:vector ETV
attr interpolationmode none
attr title "the generation of the arrived jobs, vector"
vector 8 Rete.passiveQueue queueingTime:vector ETV
attr interpolationmode none
attr title "queueing time at dequeue, vector"
attr unit s
0	0	0	0
0	60	6.986225159496	1
0	61	7.016004882508	0
0	85	13.326640990587	1
0	86	13.411730384421	0
0	100	14.107561577423	1
0	101	14.191311453008	0
0	150	21.534422726388	1
0	151	21.573158405591	0
0	160	21.951220743213	1
0	161	21.977195496346	0
0	305	47.500783977628	1
0	306	47.517877239588	0
0	335	52.452332741035	1
0	336	52.528380386809	0
0	352	54.120042811315	1
0	353	54.251029284515	0
0	446	70.14760290057	1
0	447	70.170910390667	0
0	476	73.086402699401	1
0	477	73.093789571248	0
0	541	80.862102363574	1
0	542	80.921045299075	0
0	556	82.467899247994	1
0	557	82.470820392948	0
0	561	82.50227505294	1
0	562	82.559418735344	0
0	581	83.960178030245	1
0	582	84.038673391195	0
0	601	88.523871209805	1
0	602	88.606420139355	0
0	606	88.659038946761	1
0	607	88.695018481751	0
0	621	91.54861464717	1
0	622	91.579821350487	0
0	696	103.504013469917	1
0	698	103.508956636332	2
0	699	103.554230290685	1
0	704	103.78554720092	0
0	712	106.454717735782	1
0	713	106.518930816666	0
0	807	121.103802382823	1
0	809	121.110664222859	2
0	810	121.129517867783	1
0	813	121.218116210179	0
0	862	132.773446961136	1
0	863	132.838008373466	0
0	892	135.17416077338	1
0	893	135.229408304118	0
0	932	140.990075035354	1
0	933	140.994786196943	0
0	1007	153.311359879848	1
0	1008	153.326121898317	0
0	1027	155.252810450573	1
0	1028	155.266430047623	0
0	1058	159.689670252221	1
0	1060	159.731455454085	2
0	1061	159.765625337909	1
0	1064	159.854223680305	0
0	1088	166.227106768096	1
0	1089	166.248628651445	0
0	1098	166.7076480566	1
0	1100	166.755430533135	2
0	1101	166.794635083335	1
0	1104	166.883233425731	0
0	1163	178.387608389784	1
0	1164	178.449169558977	0
0	1188	184.648895643994	1
0	1189	184.72920587076	0
0	1278	200.914415938322	1
0	1279	200.935164172089	0
0	1328	212.146112231711	1
0	1329	212.20755236116	0
0	1358	215.310271910062	1
0	1359	215.333108147948	0
0	1434	234.139234730359	1
0	1435	234.174921569436	0
0	1454	240.11205886823	1
0	1455	240.139358325951	0
0	1459	240.189002089075	1
0	1460	240.227956668347	0
0	1474	241.571654411677	1
0	1475	241.584245415838	0
0	1494	243.383651911898	1
0	1495	243.453248198337	0
0	1599	260.036295196785	1
0	1600	260.088749932151	0
0	1644	267.215663168561	1
0	1645	267.292031334888	0
0	1744	286.514177150349	1
0	1745	286.585289843645	0
0	1754	286.861969197343	1
0	1756	286.9311053438	2
0	1759	287.077083419486	1
0	1762	287.137724437446	2
0	1763	287.165681761882	1
0	1766	287.254280104278	0
0	1805	293.421271606304	1
0	1806	293.477916083137	0
0	1925	316.361396696192	1
0	1926	316.383231392823	0
0	2070	341.474867991817	1
0	2071	341.492970513327	0
0	2075	341.514702270277	1
0	2076	341.581568855723	0
0	2100	344.585228248895	1
0	2101	344.617867014112	0
0	2111	347.392666589303	1
0	2112	347.424707149424	0
0	2116	347.442355463515	1
0	2117	347.51330549182	0
0	2166	358.679054614616	1
0	2167	358.707579117553	0
0	2296	390.362123234451	1
0	2297	390.397671419152	0
0	2311	391.820683083536	1
0	2312	391.889491977065	0
0	2321	400.091185960753	1
0	2322	400.111364622652	0
0	2436	420.506413051908	1
0	2437	420.577973441154	0
0	2446	421.061094555619	1
0	2447	421.078063050138	0
0	2592	447.410006818428	1
0	2593	447.423060320654	0
0	2602	447.809242430047	1
0	2603	447.844647130944	0
0	2652	454.469390545717	1
0	2653	454.494340698026	0
0	2752	468.468082348471	1
0	2753	468.518291431845	0
0	2777	474.831070450159	1
0	2778	474.850576659775	0
0	2797	478.935903394951	1
0	2798	479.012978316848	0
0	2809	480.74569725933	1
0	2810	480.775290503265	0
0	2858	492.439653174469	1
0	2859	492.507393510836	0
0	2883	495.231763573049	1
0	2884	495.274044430773	0
0	2908	499.939231459543	1
0	2909	499.949182520401	0
0	2938	501.501057301	1
0	2939	501.524100768503	0
0	3073	525.590090309901	1
0	3074	525.638136465399	0
0	3083	527.048578064644	1
0	3084	527.118944884422	0
0	3113	533.059230668061	1
0	3114	533.14097756984	0
0	3148	536.367236357532	1
0	3149	536.376071086938	0
0	3169	539.211066099939	1
0	3170	539.274419538352	0
0	3184	540.987888436691	1
0	3185	541.071681119018	0
0	3239	550.289137369245	1
0	3240	550.375062229864	0
0	3319	566.235974657389	1
0	3320	566.282897609695	0
0	3364	571.760921156889	1
0	3365	571.798804353251	0
0	3369	571.872730073355	1
0	3370	571.887402695647	0
0	3409	580.35540078302	1
0	3410	580.374532139847	0
0	3444	585.407638142711	1
0	3445	585.423358726089	0
0	3499	596.034434727277	1
0	3501	596.064881528205	2
0	3502	596.072960670876	1
0	3505	596.161559013272	0
0	3615	609.73492720128	1
0	3616	609.77159842225	0
0	3635	611.709697305701	1
0	3636	611.71400306534	0
0	3695	618.427419738147	1
0	3696	618.431607746977	0
0	3710	619.088840796683	1
0	3711	619.104611840413	0
0	3790	637.39528831406	1
0	3791	637.456055428606	0
0	3805	638.68315658068	1
0	3806	638.74894143152	0
0	3845	642.444582999907	1
0	3846	642.446754370345	0
0	3916	655.138533788415	1
0	3917	655.213995185829	0
0	3931	655.793418158172	1
0	3932	655.83878942382	0
0	3951	658.203566927352	1
0	3952	658.288713624469	0
0	4021	672.565722032961	1
0	4022	672.6310169529	0
0	4046	674.703589128476	1
0	4047	674.71957977319	0
0	4056	675.441334260437	1
0	4057	675.515207883569	0
0	4191	704.390663874883	1
0	4192	704.43088165685	0
0	4232	709.517803952327	1
0	4233	709.602752083019	0
0	4312	729.498939583438	1
0	4313	729.524125702567	0
0	4332	735.328415984293	1
0	4333	735.415697987311	0
0	4452	761.63297095496	1
0	4453	761.633503405458	0
0	4472	765.251163084429	1
0	4473	765.297943616367	0
0	4482	765.903276272549	1
0	4483	765.959095679952	0
0	4487	766.013260374113	1
0	4488	766.047694022348	0
0	4497	766.536994527738	1
0	4498	766.584457587317	0
0	4522	771.183090757038	1
0	4523	771.238416940024	0
0	4547	775.03680621319	1
0	4548	775.075701099411	0
0	4733	805.036170355366	1
0	4734	805.119203618055	0
0	4743	806.780444886082	1
0	4744	806.866321417456	0
0	4808	814.968857257873	1
0	4809	815.002867056378	0
0	4823	815.810240775946	1
0	4824	815.828180927709	0
0	4929	827.726317429113	1
0	4930	827.769605180574	0
0	5024	844.017873279496	1
0	5025	844.077199987001	0
0	5034	844.472123922409	1
0	5035	844.554438255023	0
0	5174	868.458272987021	1
0	5175	868.47287783353	0
0	5270	880.401385177625	1
0	5271	880.418100562827	0
0	5330	885.742315638242	1
0	5331	885.795352670946	0
0	5420	900.522977409074	1
0	5421	900.577596380673	0
0	5430	902.408900322835	1
0	5431	902.469672604804	0
0	5490	914.432505577752	1
0	5491	914.448398984782	0
0	5535	919.834268297589	1
0	5536	919.921705559759	0
0	5550	922.483370056198	1
0	5551	922.563242784692	0
0	5590	928.28173782159	1
0	5591	928.292954620777	0
0	5595	928.319862248339	1
0	5596	928.381552963173	0
0	5626	932.356175345092	1
0	5627	932.414213539959	0
0	5671	938.411904267586	1
0	5672	938.454320759893	0
0	5701	941.59226299436	1
0	5702	941.620032334064	0
0	5756	948.446067544668	1
0	5757	948.504119866965	0
0	5806	961.332003765044	1
0	5807	961.367575261669	0
0	5876	974.26643861288	1
0	5877	974.351023730719	0
0	5906	978.189981358455	1
0	5907	978.229212454029	0
0	5968	986.358944805605	1
0	5969	986.361170734258	0
0	6012	992.922405706317	1
0	6013	992.963681118664	0
0	6017	993.012205815919	1
0	6018	993.05227946106	0
1	5	0.644777652251	0.088598342396
1	10	1.73528108388	0.088598342396
1	15	2.340294230284	0.088598342396
1	20	2.930846594326	0.088598342396
1	25	4.244506972166	0.088598342396
1	30	4.814314615247	0.088598342396
1	35	5.334743405086	0.088598342396
1	40	5.686374368307	0.088598342396
1	45	6.569294820064	0.088598342396
1	50	6.792332047342	0.088598342396
1	55	6.923038400906	0.088598342396
1	62	7.016004882508	0.088598342396
1	65	7.104603224904	0.118378065408
1	70	11.741445923531	0.088598342396
1	75	11.893868527603	0.088598342396
1	80	12.772363549765	0.088598342396
1	87	13.411730384421	0.088598342396
1	90	13.500328726817	0.17368773623
1	95	14.08610407898	0.088598342396
1	102	14.191311453008	0.088598342396
1	105	14.279909795404	0.172348217981
1	110	14.481396376404	0.088598342396
1	115	14.927996620004	0.088598342396
1	120	18.482003294127	0.088598342396
1	125	19.208238201717	0.088598342396
1	130	19.602968670867	0.088598342396
1	135	20.40900447823	0.088598342396
1	140	20.560532310184	0.088598342396
1	145	20.721487383343	0.088598342396
1	152	21.573158405591	0.088598342396
1	155	21.661756747987	0.127334021599
1	162	21.977195496346	0.088598342396
1	165	22.065793838742	0.114573095529
1	170	22.487587208385	0.088598342396
1	175	24.515473955263	0.088598342396
1	180	24.999232542782	0.088598342396
1	185	25.57636906245	0.088598342396
1	190	25.79179477907	0.088598342396
1	195	26.231204510703	0.088598342396
1	200	27.73367543349	0.088598342396
1	205	27.857741122842	0.088598342396
1	210	28.313744446674	0.088598342396
1	215	29.042273139966	0.088598342396
1	220	29.239668143637	0.088598342396
1	225	29.98956792467	0.088598342396
1	230	30.567847528583	0.088598342396
1	235	30.876385856706	0.088598342396
1	240	34.042734439228	0.088598342396
1	245	35.32816332837	0.088598342396
1	250	36.364342575268	0.088598342396
1	255	39.12793229595	0.088598342396
1	260	39.674156160873	0.088598342396
1	265	39.979606583921	0.088598342396
1	270	42.080442463867	0.088598342396
1	275	42.561124920795	0.088598342396
1	280	43.065216266135	0.088598342396
1	285	44.982289166271	0.088598342396
1	290	45.236643797121	0.088598342396
1	295	45.355882626518	0.088598342396
1	300	46.119124284204	0.088598342396
1	307	47.517877239588	0.088598342396
1	310	47.606475581984	0.105691604356
1	315	48.152730528634	0.088598342396
1	320	49.378716122947	0.088598342396
1	325	49.495186566913	0.088598342396
1	330	50.720381369553	0.088598342396
1	337	52.528380386809	0.088598342396
1	340	52.616978729205	0.16464598817
1	345	52.785274699676	0.088598342396
1	350	54.108310716676	0.088598342396
1	356	54.339627626911	0.219584815596
1	361	55.262736896085	0.088598342396
1	366	55.669989493367	0.088598342396
1	371	56.691177937542	0.088598342396
1	376	56.871340311636	0.088598342396
1	381	58.029923421087	0.088598342396
1	386	58.92384590292	0.088598342396
1	391	59.387998062012	0.088598342396
1	396	59.996826722002	0.088598342396
1	401	60.525602904002	0.088598342396
1	406	64.651157923618	0.088598342396
1	411	65.047517509926	0.088598342396
1	416	65.214424857414	0.088598342396
1	421	66.722394969897	0.088598342396
1	426	66.915374342681	0.088598342396
1	431	68.38485808252	0.088598342396
1	436	68.813897048804	0.088598342396
1	441	70.06234142339	0.088598342396
1	448	70.170910390667	0.088598342396
1	451	70.259508733063	0.111905832493
1	456	70.886438331325	0.088598342396
1	461	71.338169147694	0.088598342396
1	466	71.637791503511	0.088598342396
1	471	72.431889319433	0.088598342396
1	478	73.093789571248	0.088598342396
1	481	73.182387913644	0.095985214243
1	486	73.730500147974	0.088598342396
1	491	74.628001274474	0.088598342396
1	496	75.53205052851	0.088598342396
1	501	76.043170463944	0.088598342396
1	506	76.490667993581	0.088598342396
1	511	76.694548295558	0.088598342396
1	516	76.973567438143	0.088598342396
1	521	77.931180233956	0.088598342396
1	526	79.40026001162	0.088598342396
1	531	80.152663731454	0.088598342396
1	536	80.435472999035	0.088598342396
1	543	80.921045299075	0.088598342396
1	546	81.009643641471	0.147541277897
1	551	81.122021665954	0.088598342396
1	558	82.470820392948	0.088598342396
1	563	82.559418735344	0.09151948735
1	566	82.64801707774	0.1457420248
1	571	82.818613529589	0.088598342396
1	576	83.672168729021	0.088598342396
1	583	84.038673391195	0.088598342396
1	586	84.127271733591	0.167093703346
1	591	84.634370311398	0.088598342396
1	596	85.03906660663	0.088598342396
1	603	88.606420139355	0.088598342396
1	608	88.695018481751	0.171147271946
1	611	88.783616824147	0.124577877386
1	616	91.012062459354	0.088598342396
1	623	91.579821350487	0.088598342396
1	626	91.668419692883	0.119805045713
1	631	91.911489856136	0.088598342396
1	636	92.964790233324	0.088598342396
1	641	93.445181200462	0.088598342396
1	646	93.820023603119	0.088598342396
1	651	94.861040414933	0.088598342396
1	656	95.354821056846	0.088598342396
1	661	96.459733934662	0.088598342396
1	666	98.454420618914	0.088598342396
1	671	98.630264568809	0.088598342396
1	676	99.0078568979	0.088598342396
1	681	100.95030581249	0.088598342396
1	686	101.126371710973	0.088598342396
1	691	101.219470519675	0.088598342396
1	700	103.554230290685	0.088598342396
1	703	103.642828633081	0.138815163164
1	707	103.874145543316	0.365188906984
1	714	106.518930816666	0.088598342396
1	717	106.607529159062	0.15281142328
1	722	106.922351748065	0.088598342396
1	727	108.033533316069	0.088598342396
1	732	108.273013251226	0.088598342396
1	737	109.166375818025	0.088598342396
1	742	109.720022959209	0.088598342396
1	747	109.9100560474	0.088598342396
1	752	111.401418991765	0.088598342396
1	757	111.722211497096	0.088598342396
1	762	111.908546455636	0.088598342396
1	767	113.67506749733	0.088598342396
1	772	114.869738999504	0.088598342396
1	777	115.246512890156	0.088598342396
1	782	117.740333670659	0.088598342396
1	787	118.642055401114	0.088598342396
1	792	119.563305041333	0.088598342396
1	797	119.920584493324	0.088598342396
1	802	120.939102225937	0.088598342396
1	811	121.129517867783	0.088598342396
1	814	121.218116210179	0.114313827356
1	817	121.306714552575	0.196050329716
1	822	121.873200903899	0.088598342396
1	827	122.527411093579	0.088598342396
1	832	122.79456941943	0.088598342396
1	837	124.483418367138	0.088598342396
1	842	124.676045806764	0.088598342396
1	847	128.718284396625	0.088598342396
1	852	130.340244435222	0.088598342396
1	857	131.563700443674	0.088598342396
1	864	132.838008373466	0.088598342396
1	867	132.926606715862	0.153159754726
1	872	133.183153537257	0.088598342396
1	877	134.072547954953	0.088598342396
1	882	134.479775417158	0.088598342396
1	887	134.7572004173	0.088598342396
1	894	135.229408304118	0.088598342396
1	897	135.318006646514	0.143845873134
1	902	135.629340343889	0.088598342396
1	907	136.318013717055	0.088598342396
1	912	137.56898563371	0.088598342396
1	917	137.876292401971	0.088598342396
1	922	140.451102018529	0.088598342396
1	927	140.748973841449	0.088598342396
1	934	140.994786196943	0.088598342396
1	937	141.083384539339	0.093309503985
1	942	141.74939520141	0.088598342396
1	947	141.915464464277	0.088598342396
1	952	143.149642761972	0.088598342396
1	957	144.330120772188	0.088598342396
1	962	144.496295891491	0.088598342396
1	967	144.743248810391	0.088598342396
1	972	145.343515157038	0.088598342396
1	977	145.792081177829	0.088598342396
1	982	146.04222502021	0.088598342396
1	987	146.701454875018	0.088598342396
1	992	147.253877676319	0.088598342396
1	997	148.121138492079	0.088598342396
1	1002	152.597158107333	0.088598342396
1	1009	153.326121898317	0.088598342396
1	1012	153.414720240713	0.103360360865
1	1017	153.875099295647	0.088598342396
1	1022	154.702431238615	0.088598342396
1	1029	155.266430047623	0.088598342396
1	1032	155.355028390019	0.102217939446
1	1037	155.964752027779	0.088598342396
1	1042	156.411010451266	0.088598342396
1	1047	157.407197422211	0.088598342396
1	1052	158.197297956152	0.088598342396
1	1062	159.765625337909	0.088598342396
1	1065	159.854223680305	0.164553428084
1	1068	159.942822022701	0.211366568616
1	1073	160.143754523139	0.088598342396
1	1078	160.66872872184	0.088598342396
1	1083	161.193650681817	0.088598342396
1	1090	166.248628651445	0.088598342396
1	1093	166.337226993841	0.110120225745
1	1102	166.794635083335	0.088598342396
1	1105	166.883233425731	0.175585369131
1	1108	166.971831768127	0.216401234992
1	1113	167.278971793434	0.088598342396
1	1118	169.510551481738	0.088598342396
1	1123	171.342935187956	0.088598342396
1	1128	172.771776837006	0.088598342396
1	1133	173.421231445569	0.088598342396
1	1138	173.583703707623	0.088598342396
1	1143	173.927429323222	0.088598342396
1	1148	176.667365965331	0.088598342396
1	1153	178.071323278606	0.088598342396
1	1158	178.293694683711	0.088598342396
1	1165	178.449169558977	0.088598342396
1	1168	178.537767901373	0.150159511589
1	1173	181.785913943911	0.088598342396
1	1178	182.087153639442	0.088598342396
1	1183	183.79567311679	0.088598342396
1	1190	184.72920587076	0.088598342396
1	1193	184.817804213156	0.168908569162
1	1198	186.333083779905	0.088598342396
1	1203	188.349198037694	0.088598342396
1	1208	189.723745713244	0.088598342396
1	1213	190.387624424855	0.088598342396
1	1218	190.65623871194	0.088598342396
1	1223	192.22235697407	0.088598342396
1	1228	192.604392484141	0.088598342396
1	1233	195.063193437646	0.088598342396
1	1238	195.574937552446	0.088598342396
1	1243	196.281647712842	0.088598342396
1	1248	197.057492177678	0.088598342396
1	1253	197.840975237712	0.088598342396
1	1258	198.453226800484	0.088598342396
1	1263	199.595924100354	0.088598342396
1	1268	199.999294080799	0.088598342396
1	1273	200.764949655266	0.088598342396
1	1280	200.935164172089	0.088598342396
1	1283	201.023762514485	0.109346576163
1	1288	201.17381188765	0.088598342396
1	1293	202.093412727102	0.088598342396
1	1298	203.200238308533	0.088598342396
1	1303	204.445443523137	0.088598342396
1	1308	206.803389419104	0.088598342396
1	1313	210.359664162074	0.088598342396
1	1318	210.448781512436	0.088598342396
1	1323	210.957868389158	0.088598342396
1	1330	212.20755236116	0.088598342396
1	1333	212.296150703556	0.150038471845
1	1338	212.438065127277	0.088598342396
1	1343	213.05607231413	0.088598342396
1	1348	213.381539014799	0.088598342396
1	1353	214.71472598783	0.088598342396
1	1360	215.333108147948	0.088598342396
1	1363	215.421706490344	0.111434580282
1	1368	217.637702712641	0.088598342396
1	1373	217.728491229057	0.088598342396
1	1378	218.529378911522	0.088598342396
1	1383	219.337073681495	0.088598342396
1	1388	219.535623378154	0.088598342396
1	1393	220.320323746496	0.088598342396
1	1398	223.838562186928	0.088598342396
1	1403	228.114711731989	0.088598342396
1	1409	229.235011024142	0.088598342396
1	1414	230.324420634275	0.088598342396
1	1419	232.25049660709	0.088598342396
1	1424	232.442468632712	0.088598342396
1	1429	233.3886109188	0.088598342396
1	1436	234.174921569436	0.088598342396
1	1439	234.263519911832	0.124285181473
1	1444	234.671384377079	0.088598342396
1	1449	238.621010572591	0.088598342396
1	1456	240.139358325951	0.088598342396
1	1461	240.227956668347	0.115897800117
1	1464	240.316555010743	0.127552921668
1	1469	241.446870729778	0.088598342396
1	1476	241.584245415838	0.088598342396
1	1479	241.672843758234	0.101189346557
1	1484	242.649758206359	0.088598342396
1	1489	242.826178451901	0.088598342396
1	1496	243.453248198337	0.088598342396
1	1499	243.541846540733	0.158194628835
1	1504	245.203109109355	0.088598342396
1	1509	245.44346477724	0.088598342396
1	1514	245.917304909774	0.088598342396
1	1519	247.886913992161	0.088598342396
1	1524	248.139655151168	0.088598342396
1	1529	248.250916895383	0.088598342396
1	1534	248.883315608278	0.088598342396
1	1539	250.889296026413	0.088598342396
1	1544	251.600233436998	0.088598342396
1	1549	252.495171679739	0.088598342396
1	1554	252.823355165408	0.088598342396
1	1559	253.87536718837	0.088598342396
1	1564	253.985444860348	0.088598342396
1	1569	254.942292702484	0.088598342396
1	1574	255.701378038252	0.088598342396
1	1579	256.248881514386	0.088598342396
1	1584	256.445414891717	0.088598342396
1	1589	256.656724576962	0.088598342396
1	1594	259.874349829874	0.088598342396
1	1601	260.088749932151	0.088598342396
1	1604	260.177348274547	0.141053077762
1	1609	260.291162545963	0.088598342396
1	1614	260.716312387796	0.088598342396
1	1619	262.83939534791	0.088598342396
1	1624	263.138758782152	0.088598342396
1	1629	264.083598132498	0.088598342396
1	1634	264.348442188788	0.088598342396
1	1639	265.444363098879	0.088598342396
1	1646	267.292031334888	0.088598342396
1	1649	267.380629677284	0.164966508723
1	1654	267.929124914949	0.088598342396
1	1659	268.802626918744	0.088598342396
1	1664	269.388704361223	0.088598342396
1	1669	269.875334310721	0.088598342396
1	1674	270.106428011079	0.088598342396
1	1679	270.506953591883	0.088598342396
1	1684	271.286479704123	0.088598342396
1	1689	274.940324589428	0.088598342396
1	1694	275.227446765058	0.088598342396
1	1699	276.118786860181	0.088598342396
1	1704	278.160239583933	0.088598342396
1	1709	278.300983778113	0.088598342396
1	1714	280.366509025265	0.088598342396
1	1719	280.698341543574	0.088598342396
1	1724	281.0647989171	0.088598342396
1	1729	282.506843199719	0.088598342396
1	1734	285.00936246729	0.088598342396
1	1739	285.548516189497	0.088598342396
1	1746	286.585289843645	0.088598342396
1	1749	286.673888186041	0.159711035692
1	1758	286.934364851647	0.088598342396
1	1764	287.165681761882	0.303712564539
1	1767	287.254280104278	0.323174760478
1	1770	287.342878446674	0.205154009228
1	1775	287.54331355232	0.088598342396
1	1780	289.214220882563	0.088598342396
1	1785	289.343181734758	0.088598342396
1	1790	289.513479162249	0.088598342396
1	1795	289.604980623128	0.088598342396
1	1800	291.230409304562	0.088598342396
1	1807	293.477916083137	0.088598342396
1	1810	293.566514425533	0.145242819229
1	1815	293.810247732753	0.088598342396
1	1820	294.526216287085	0.088598342396
1	1825	295.469450679944	0.088598342396
1	1830	295.790067385457	0.088598342396
1	1835	296.996038651617	0.088598342396
1	1840	298.079573780374	0.088598342396
1	1845	298.41031622306	0.088598342396
1	1850	299.809278598144	0.088598342396
1	1855	299.99314560243	0.088598342396
1	1860	300.218909170241	0.088598342396
1	1865	302.158253349831	0.088598342396
1	1870	304.157482120383	0.088598342396
1	1875	305.946753994667	0.088598342396
1	1880	306.38065411095	0.088598342396
1	1885	308.310612074499	0.088598342396
1	1890	310.115836994314	0.088598342396
1	1895	311.848395129009	0.088598342396
1	1900	312.516869925197	0.088598342396
1	1905	312.844375047482	0.088598342396
1	1910	313.546459861135	0.088598342396
1	1915	313.710954888255	0.088598342396
1	1920	314.962295288387	0.088598342396
1	1927	316.383231392823	0.088598342396
1	1930	316.471829735219	0.110433039027
1	1935	316.855118930592	0.088598342396
1	1940	318.204096548931	0.088598342396
1	1945	319.336544669583	0.088598342396
1	1950	320.473875636519	0.088598342396
1	1955	321.876767847647	0.088598342396
1	1960	322.190537415865	0.088598342396
1	1965	322.813178615809	0.088598342396
1	1970	322.926923556905	0.088598342396
1	1975	323.31738407714	0.088598342396
1	1980	323.572765653387	0.088598342396
1	1985	324.802638286867	0.088598342396
1	1990	325.393681464768	0.088598342396
1	1995	326.977105177511	0.088598342396
1	2000	328.184330410303	0.088598342396
1	2005	329.051627174566	0.088598342396
1	2010	331.037343796901	0.088598342396
1	2015	331.750167247384	0.088598342396
1	2020	332.04575255146	0.088598342396
1	2025	332.348832243088	0.088598342396
1	2030	332.488153626553	0.088598342396
1	2035	333.478348395588	0.088598342396
1	2040	333.832036096223	0.088598342396
1	2045	334.505101034805	0.088598342396
1	2050	335.449508159035	0.088598342396
1	2055	337.507951914812	0.088598342396
1	2060	339.346968330335	0.088598342396
1	2065	340.541739849134	0.088598342396
1	2072	341.492970513327	0.088598342396
1	2077	341.581568855723	0.106700863906
1	2080	341.670167198119	0.155464927842
1	2085	342.870651128432	0.088598342396
1	2090	343.227870195193	0.088598342396
1	2095	344.170366424878	0.088598342396
1	2102	344.617867014112	0.088598342396
1	2105	344.706465356508	0.121237107613
1	2113	347.424707149424	0.088598342396
1	2118	347.51330549182	0.120638902517
1	2121	347.601903834216	0.159548370701
1	2126	350.242112211002	0.088598342396
1	2131	353.328717682017	0.088598342396
1	2136	353.528239856891	0.088598342396
1	2141	353.639179930297	0.088598342396
1	2146	354.597872239876	0.088598342396
1	2151	356.003226031383	0.088598342396
1	2156	356.565546094655	0.088598342396
1	2161	358.325611047353	0.088598342396
1	2168	358.707579117553	0.088598342396
1	2171	358.796177459949	0.117122845333
1	2176	359.519060361365	0.088598342396
1	2181	360.217056904082	0.088598342396
1	2186	361.84480872374	0.088598342396
1	2191	364.371277406088	0.088598342396
1	2196	364.709490893478	0.088598342396
1	2201	366.066728964326	0.088598342396
1	2206	367.305294973539	0.088598342396
1	2211	367.755875365055	0.088598342396
1	2216	370.495069328317	0.088598342396
1	2221	371.42786903913	0.088598342396
1	2226	371.691871211665	0.088598342396
1	2231	372.463665061979	0.088598342396
1	2236	374.006614813021	0.088598342396
1	2241	374.532721374606	0.088598342396
1	2246	375.677478486928	0.088598342396
1	2251	377.512320465636	0.088598342396
1	2256	378.241704749978	0.088598342396
1	2261	379.544471020653	0.088598342396
1	2266	380.991183793512	0.088598342396
1	2271	382.401541121291	0.088598342396
1	2276	383.04251198861	0.088598342396
1	2281	387.174976999547	0.088598342396
1	2286	388.375466043231	0.088598342396
1	2291	388.683178620819	0.088598342396
1	2298	390.397671419152	0.088598342396
1	2301	390.486269761548	0.124146527097
1	2306	390.781694418402	0.088598342396
1	2313	391.889491977065	0.088598342396
1	2316	391.978090319461	0.157407235925
1	2323	400.111364622652	0.088598342396
1	2326	400.199962965048	0.108777004295
1	2331	401.031658496731	0.088598342396
1	2336	401.543724400244	0.088598342396
1	2341	402.272900579441	0.088598342396
1	2346	403.645675995415	0.088598342396
1	2351	404.387863377578	0.088598342396
1	2356	404.797826782447	0.088598342396
1	2361	405.317730242035	0.088598342396
1	2366	405.490047606028	0.088598342396
1	2371	405.784444833371	0.088598342396
1	2376	406.502618366662	0.088598342396
1	2381	407.566456227789	0.088598342396
1	2386	407.706736945672	0.088598342396
1	2391	408.328930219696	0.088598342396
1	2396	408.447954539979	0.088598342396
1	2401	408.830068070821	0.088598342396
1	2406	409.50938031163	0.088598342396
1	2411	409.968206177325	0.088598342396
1	2416	412.844704316808	0.088598342396
1	2421	414.347035899953	0.088598342396
1	2426	419.484727078459	0.088598342396
1	2431	420.389831141629	0.088598342396
1	2438	420.577973441154	0.088598342396
1	2441	420.66657178355	0.160158731642
1	2448	421.078063050138	0.088598342396
1	2451	421.166661392534	0.105566836915
1	2456	421.771261096089	0.088598342396
1	2462	422.542458558522	0.088598342396
1	2467	422.638770861688	0.088598342396
1	2472	423.440893876633	0.088598342396
1	2477	424.147895259235	0.088598342396
1	2482	428.530930542269	0.088598342396
1	2487	429.165980530069	0.088598342396
1	2492	429.650930335343	0.088598342396
1	2497	429.766822890651	0.088598342396
1	2502	430.399640035389	0.088598342396
1	2507	430.500158814958	0.088598342396
1	2512	431.498935909765	0.088598342396
1	2517	432.313039183298	0.088598342396
1	2522	432.747565190776	0.088598342396
1	2527	436.43205714132	0.088598342396
1	2532	437.772040024964	0.088598342396
1	2537	438.247225519937	0.088598342396
1	2542	438.476304817789	0.088598342396
1	2547	438.724813227905	0.088598342396
1	2552	439.601950545542	0.088598342396
1	2557	442.325000207706	0.088598342396
1	2562	442.699600102456	0.088598342396
1	2567	443.407071414638	0.088598342396
1	2572	443.801318044298	0.088598342396
1	2577	445.848761624293	0.088598342396
1	2582	446.45805093106	0.088598342396
1	2587	446.951697354825	0.088598342396
1	2594	447.423060320654	0.088598342396
1	2597	447.51165866305	0.101651844622
1	2604	447.844647130944	0.088598342396
1	2607	447.93324547334	0.124003043293
1	2612	449.697251230267	0.088598342396
1	2617	450.776810231884	0.088598342396
1	2622	451.033405091299	0.088598342396
1	2627	451.621996526857	0.088598342396
1	2632	451.713130958017	0.088598342396
1	2637	452.528784814661	0.088598342396
1	2642	452.750794334227	0.088598342396
1	2647	452.937547133602	0.088598342396
1	2654	454.494340698026	0.088598342396
1	2657	454.582939040422	0.113548494705
1	2662	455.24870286293	0.088598342396
1	2667	455.874493392378	0.088598342396
1	2672	457.055686249773	0.088598342396
1	2677	457.382508650462	0.088598342396
1	2682	458.640294739966	0.088598342396
1	2687	458.92672230202	0.088598342396
1	2692	459.247462312527	0.088598342396
1	2697	459.618969195927	0.088598342396
1	2702	461.463309471016	0.088598342396
1	2707	461.660697384132	0.088598342396
1	2712	461.884405926731	0.088598342396
1	2717	462.183446839889	0.088598342396
1	2722	462.399470508841	0.088598342396
1	2727	463.131985373447	0.088598342396
1	2732	464.074801089503	0.088598342396
1	2737	464.68393996882	0.088598342396
1	2742	464.910872289162	0.088598342396
1	2747	467.169837565389	0.088598342396
1	2754	468.518291431845	0.088598342396
1	2757	468.606889774241	0.13880742577
1	2762	469.333577354833	0.088598342396
1	2767	469.910169347132	0.088598342396
1	2772	470.617726734624	0.088598342396
1	2779	474.850576659775	0.088598342396
1	2782	474.939175002171	0.108104552012
1	2787	475.22891082404	0.088598342396
1	2792	478.035230666743	0.088598342396
1	2799	479.012978316848	0.088598342396
1	2802	479.101576659244	0.165673264293
1	2807	480.632571935426	0.088598342396
1	2813	480.863888845661	0.118191586331
1	2818	482.281486063375	0.088598342396
1	2823	482.996847643501	0.088598342396
1	2828	483.644262221622	0.088598342396
1	2833	484.13321430249	0.088598342396
1	2838	485.749958973251	0.088598342396
1	2843	486.096240982106	0.088598342396
1	2848	486.947952573731	0.088598342396
1	2853	488.060143757105	0.088598342396
1	2860	492.507393510836	0.088598342396
1	2863	492.595991853232	0.156338678763
1	2868	493.697618952107	0.088598342396
1	2873	494.048887097094	0.088598342396
1	2878	495.110414135155	0.088598342396
1	2885	495.274044430773	0.088598342396
1	2888	495.362642773169	0.13087920012
1	2893	498.587905709392	0.088598342396
1	2898	498.691262158955	0.088598342396
1	2903	499.279601536825	0.088598342396
1	2910	499.949182520401	0.088598342396
1	2913	500.037780862797	0.098549403254
1	2918	500.471044844308	0.088598342396
1	2923	500.65441219878	0.088598342396
1	2928	501.103574907419	0.088598342396
1	2933	501.212174787945	0.088598342396
1	2940	501.524100768503	0.088598342396
1	2943	501.612699110899	0.111641809899
1	2948	504.829437010506	0.088598342396
1	2953	505.094393529052	0.088598342396
1	2958	505.504639534124	0.088598342396
1	2963	505.6039492582	0.088598342396
1	2968	506.439596541713	0.088598342396
1	2973	507.63686379116	0.088598342396
1	2978	508.222815285048	0.088598342396
1	2983	508.382391480147	0.088598342396
1	2988	508.942017223868	0.088598342396
1	2993	510.556277637797	0.088598342396
1	2998	512.633559686392	0.088598342396
1	3003	513.1356832652	0.088598342396
1	3008	514.186639157875	0.088598342396
1	3013	514.568157950529	0.088598342396
1	3018	515.254233515622	0.088598342396
1	3023	515.759797566698	0.088598342396
1	3028	516.850559735896	0.088598342396
1	3033	518.521515648748	0.088598342396
1	3038	519.045467763457	0.088598342396
1	3043	520.898437763965	0.088598342396
1	3048	522.040905204764	0.088598342396
1	3053	522.496004003486	0.088598342396
1	3058	522.629502854408	0.088598342396
1	3063	523.174655904862	0.088598342396
1	3068	524.207697614207	0.088598342396
1	3075	525.638136465399	0.088598342396
1	3078	525.726734807795	0.136644497894
1	3085	527.118944884422	0.088598342396
1	3088	527.207543226818	0.158965162174
1	3093	528.285040711224	0.088598342396
1	3098	530.483156369881	0.088598342396
1	3103	532.45728463769	0.088598342396
1	3108	532.865163652784	0.088598342396
1	3115	533.14097756984	0.088598342396
1	3118	533.229575912236	0.170345244175
1	3123	534.063815832298	0.088598342396
1	3128	534.729848617625	0.088598342396
1	3133	534.914743150146	0.088598342396
1	3138	535.287152221596	0.088598342396
1	3143	535.746511834971	0.088598342396
1	3150	536.376071086938	0.088598342396
1	3153	536.464669429334	0.097433071802
1	3158	536.744886077248	0.088598342396
1	3164	537.617760354578	0.088598342396
1	3171	539.274419538352	0.088598342396
1	3174	539.363017880748	0.151951780809
1	3179	540.184052559844	0.088598342396
1	3186	541.071681119018	0.088598342396
1	3189	541.160279461414	0.172391024723
1	3194	542.345698602589	0.088598342396
1	3199	544.03311857123	0.088598342396
1	3204	544.195788351682	0.088598342396
1	3209	544.526339711295	0.088598342396
1	3214	544.826445246385	0.088598342396
1	3219	548.295511262191	0.088598342396
1	3224	548.508894879394	0.088598342396
1	3229	548.968735121562	0.088598342396
1	3234	550.008975218365	0.088598342396
1	3241	550.375062229864	0.088598342396
1	3244	550.46366057226	0.174523203015
1	3249	550.598269949976	0.088598342396
1	3254	553.028320743787	0.088598342396
1	3259	553.208733619949	0.088598342396
1	3264	554.535427065032	0.088598342396
1	3269	556.285343885053	0.088598342396
1	3274	556.916456840868	0.088598342396
1	3279	557.921520101993	0.088598342396
1	3284	560.291215538224	0.088598342396
1	3289	560.866891996922	0.088598342396
1	3294	561.235268885751	0.088598342396
1	3299	561.572730612767	0.088598342396
1	3304	562.793124274251	0.088598342396
1	3309	563.04118522694	0.088598342396
1	3314	564.90501175297	0.088598342396
1	3321	566.282897609695	0.088598342396
1	3324	566.371495952091	0.135521294702
1	3329	566.697947680254	0.088598342396
1	3334	567.462335541782	0.088598342396
1	3339	568.17797109742	0.088598342396
1	3344	569.204292663152	0.088598342396
1	3349	569.769841002769	0.088598342396
1	3354	570.001923393486	0.088598342396
1	3359	571.488767663027	0.088598342396
1	3366	571.798804353251	0.088598342396
1	3371	571.887402695647	0.126481538758
1	3374	571.976001038043	0.103270964688
1	3379	572.849899281614	0.088598342396
1	3384	573.659701059579	0.088598342396
1	3389	574.434507123132	0.088598342396
1	3394	576.663287897909	0.088598342396
1	3399	578.377108587727	0.088598342396
1	3404	579.90765209711	0.088598342396
1	3411	580.374532139847	0.088598342396
1	3414	580.463130482243	0.107729699223
1	3419	582.816224154937	0.088598342396
1	3424	583.446054480884	0.088598342396
1	3429	583.744786932145	0.088598342396
1	3434	584.173552229359	0.088598342396
1	3439	584.754769262812	0.088598342396
1	3446	585.423358726089	0.088598342396
1	3449	585.511957068485	0.104318925774
1	3454	586.54868477414	0.088598342396
1	3459	587.230629563631	0.088598342396
1	3464	589.176718319338	0.088598342396
1	3469	589.330146397124	0.088598342396
1	3474	592.999163128068	0.088598342396
1	3479	593.201548521111	0.088598342396
1	3484	593.497329140267	0.088598342396
1	3489	594.570002084407	0.088598342396
1	3494	595.941220090272	0.088598342396
1	3503	596.072960670876	0.088598342396
1	3506	596.161559013272	0.127124285995
1	3509	596.250157355668	0.185275827463
1	3515	596.990980451207	0.088598342396
1	3520	597.441036066474	0.088598342396
1	3525	597.70511779366	0.088598342396
1	3530	598.122164775855	0.088598342396
1	3535	598.775900419147	0.088598342396
1	3540	599.574554769706	0.088598342396
1	3545	601.507681800563	0.088598342396
1	3550	601.671469937278	0.088598342396
1	3555	603.015932858038	0.088598342396
1	3560	603.31394299874	0.088598342396
1	3565	603.921920760449	0.088598342396
1	3570	604.303276126788	0.088598342396
1	3575	604.778894242132	0.088598342396
1	3580	604.911084305554	0.088598342396
1	3585	606.274926751749	0.088598342396
1	3590	606.388178123573	0.088598342396
1	3595	607.29282274475	0.088598342396
1	3600	607.386904512845	0.088598342396
1	3605	607.537200227828	0.088598342396
1	3610	608.586333833413	0.088598342396
1	3617	609.77159842225	0.088598342396
1	3620	609.860196764646	0.125269563366
1	3625	610.080063527499	0.088598342396
1	3630	611.034768917374	0.088598342396
1	3637	611.71400306534	0.088598342396
1	3640	611.802601407736	0.092904102035
1	3645	613.971129484119	0.088598342396
1	3650	614.328557283464	0.088598342396
1	3655	614.502708916479	0.088598342396
1	3660	614.958543614701	0.088598342396
1	3665	615.733725365012	0.088598342396
1	3670	616.198480700996	0.088598342396
1	3675	616.318619169441	0.088598342396
1	3680	616.749410443844	0.088598342396
1	3685	617.228195150646	0.088598342396
1	3690	617.840664628868	0.088598342396
1	3697	618.431607746977	0.088598342396
1	3700	618.520206089373	0.092786351226
1	3705	618.822450214003	0.088598342396
1	3712	619.104611840413	0.088598342396
1	3715	619.193210182809	0.104369386126
1	3720	619.541310007	0.088598342396
1	3725	619.847170948666	0.088598342396
1	3730	622.28422079653	0.088598342396
1	3735	622.744393856824	0.088598342396
1	3740	622.914439528481	0.088598342396
1	3745	627.048839732805	0.088598342396
1	3750	628.005303824512	0.088598342396
1	3755	634.236820514379	0.088598342396
1	3760	635.090434503391	0.088598342396
1	3765	635.347884461172	0.088598342396
1	3770	635.438321692407	0.088598342396
1	3775	636.698692278861	0.088598342396
1	3780	636.904423161975	0.088598342396
1	3785	637.306525908604	0.088598342396
1	3792	637.456055428606	0.088598342396
1	3795	637.544653771002	0.149365456942
1	3800	638.178844815777	0.088598342396
1	3807	638.74894143152	0.088598342396
1	3810	638.837539773916	0.154383193236
1	3815	639.220908847404	0.088598342396
1	3820	640.5692991868	0.088598342396
1	3825	641.261839668147	0.088598342396
1	3830	641.443380942676	0.088598342396
1	3835	641.777688229636	0.088598342396
1	3840	642.028775321386	0.088598342396
1	3847	642.446754370345	0.088598342396
1	3850	642.535352712741	0.090769712834
1	3855	646.01358440598	0.088598342396
1	3860	646.305133723411	0.088598342396
1	3866	647.664278297573	0.088598342396
1	3871	647.968710287648	0.088598342396
1	3876	648.162269969891	0.088598342396
1	3881	648.835233721516	0.088598342396
1	3886	650.005308480576	0.088598342396
1	3891	650.163079582462	0.088598342396
1	3896	650.626733180601	0.088598342396
1	3901	651.794207651672	0.088598342396
1	3906	653.6592872896	0.088598342396
1	3911	655.013528434973	0.088598342396
1	3918	655.213995185829	0.088598342396
1	3921	655.302593528225	0.16405973981
1	3926	655.730565163881	0.088598342396
1	3933	655.83878942382	0.088598342396
1	3936	655.927387766216	0.133969608044
1	3941	656.383749802298	0.088598342396
1	3946	658.1331719677	0.088598342396
1	3953	658.288713624469	0.088598342396
1	3956	658.377311966865	0.173745039513
1	3961	658.573558783207	0.088598342396
1	3966	662.013461309314	0.088598342396
1	3971	662.834637566514	0.088598342396
1	3976	662.988769802698	0.088598342396
1	3981	663.6421282953	0.088598342396
1	3986	663.780775852363	0.088598342396
1	3991	664.744689155435	0.088598342396
1	3996	664.990258341874	0.088598342396
1	4001	665.376926987284	0.088598342396
1	4006	666.348363512809	0.088598342396
1	4011	667.547888266184	0.088598342396
1	4016	672.362411947711	0.088598342396
1	4023	672.6310169529	0.088598342396
1	4026	672.719615295296	0.153893262335
1	4031	673.002747934087	0.088598342396
1	4036	673.105217190719	0.088598342396
1	4041	673.6942843013	0.088598342396
1	4048	674.71957977319	0.088598342396
1	4051	674.808178115586	0.10458898711
1	4058	675.515207883569	0.088598342396
1	4061	675.603806225965	0.162471965528
1	4066	677.879428500633	0.088598342396
1	4071	678.069592906512	0.088598342396
1	4076	679.514922295164	0.088598342396
1	4081	680.882710439617	0.088598342396
1	4086	681.268772327666	0.088598342396
1	4091	682.894386391152	0.088598342396
1	4096	683.119040140225	0.088598342396
1	4101	683.380398491962	0.088598342396
1	4106	687.950111252901	0.088598342396
1	4111	688.474410671142	0.088598342396
1	4116	688.761097953677	0.088598342396
1	4121	689.009644979185	0.088598342396
1	4126	690.098546228855	0.088598342396
1	4131	690.467696622608	0.088598342396
1	4136	691.010542237061	0.088598342396
1	4141	691.71419767677	0.088598342396
1	4146	692.270228743572	0.088598342396
1	4151	693.799792765497	0.088598342396
1	4156	696.636387795303	0.088598342396
1	4161	696.733195364953	0.088598342396
1	4166	699.534660975944	0.088598342396
1	4171	700.326333591595	0.088598342396
1	4176	700.568242963491	0.088598342396
1	4181	701.996205505598	0.088598342396
1	4186	703.236688163341	0.088598342396
1	4193	704.43088165685	0.088598342396
1	4196	704.519479999246	0.128816124363
1	4201	704.628817883741	0.088598342396
1	4206	704.938165337945	0.088598342396
1	4211	706.184953974262	0.088598342396
1	4217	706.591373040299	0.088598342396
1	4222	708.851532656168	0.088598342396
1	4227	709.123315782042	0.088598342396
1	4234	709.602752083019	0.088598342396
1	4237	709.691350425415	0.173546473088
1	4242	709.840330675371	0.088598342396
1	4247	711.086101779268	0.088598342396
1	4252	711.209137770319	0.088598342396
1	4257	712.023636802292	0.088598342396
1	4262	712.763025720175	0.088598342396
1	4267	713.826147748389	0.088598342396
1	4272	713.933642731857	0.088598342396
1	4277	715.936711710069	0.088598342396
1	4282	717.674750775869	0.088598342396
1	4287	722.599204257302	0.088598342396
1	4292	724.961298079122	0.088598342396
1	4297	725.425347134609	0.088598342396
1	4302	726.633308094026	0.088598342396
1	4307	726.753336512387	0.088598342396
1	4314	729.524125702567	0.088598342396
1	4317	729.612724044963	0.113784461525
1	4322	731.019516637461	0.088598342396
1	4327	734.526299620216	0.088598342396
1	4334	735.415697987311	0.088598342396
1	4337	735.504296329707	0.175880345414
1	4342	735.625877516718	0.088598342396
1	4347	735.835856868621	0.088598342396
1	4352	736.293764267673	0.088598342396
1	4357	736.600584980551	0.088598342396
1	4362	737.073483103263	0.088598342396
1	4367	738.461474744486	0.088598342396
1	4372	740.493742789925	0.088598342396
1	4377	740.86067969219	0.088598342396
1	4382	740.973283630175	0.088598342396
1	4387	743.36958520984	0.088598342396
1	4392	744.005364194695	0.088598342396
1	4397	744.743959798221	0.088598342396
1	4402	744.88580765847	0.088598342396
1	4407	747.388601204405	0.088598342396
1	4412	748.20817382538	0.088598342396
1	4417	750.012533318043	0.088598342396
1	4422	750.768541936032	0.088598342396
1	4427	751.199151654954	0.088598342396
1	4432	752.241886591618	0.088598342396
1	4437	756.099347321576	0.088598342396
1	4442	758.430159536993	0.088598342396
1	4447	759.391498983632	0.088598342396
1	4454	761.633503405458	0.088598342396
1	4457	761.722101747854	0.089130792894
1	4462	762.142819812977	0.088598342396
1	4467	762.768424875163	0.088598342396
1	4474	765.297943616367	0.088598342396
1	4477	765.386541958763	0.135378874334
1	4484	765.959095679952	0.088598342396
1	4489	766.047694022348	0.144417749799
1	4492	766.136292364744	0.123031990631
1	4499	766.584457587317	0.088598342396
1	4502	766.673055929713	0.136061401975
1	4507	766.950893883688	0.088598342396
1	4512	768.26484843103	0.088598342396
1	4517	770.036299751588	0.088598342396
1	4524	771.238416940024	0.088598342396
1	4527	771.32701528242	0.143924525382
1	4532	772.573201031175	0.088598342396
1	4537	773.107621832059	0.088598342396
1	4542	773.658351593859	0.088598342396
1	4549	775.075701099411	0.088598342396
1	4552	775.164299441807	0.127493228617
1	4557	775.59659413157	0.088598342396
1	4562	776.665617132205	0.088598342396
1	4568	778.991489701086	0.088598342396
1	4573	781.139563598516	0.088598342396
1	4578	781.833113384012	0.088598342396
1	4583	783.186003304641	0.088598342396
1	4588	783.305143184718	0.088598342396
1	4593	783.443268578768	0.088598342396
1	4598	783.582695168085	0.088598342396
1	4603	784.222504831976	0.088598342396
1	4608	786.701412476487	0.088598342396
1	4613	787.568895982686	0.088598342396
1	4618	787.971381765224	0.088598342396
1	4623	788.48656992799	0.088598342396
1	4628	788.710829703602	0.088598342396
1	4633	789.300842136157	0.088598342396
1	4638	789.525195189985	0.088598342396
1	4643	789.87811412584	0.088598342396
1	4648	790.097976040158	0.088598342396
1	4653	790.628528080419	0.088598342396
1	4658	793.08636665682	0.088598342396
1	4663	793.685740494339	0.088598342396
1	4668	794.800613699996	0.088598342396
1	4673	795.676686470005	0.088598342396
1	4678	795.961149735306	0.088598342396
1	4683	797.006235301301	0.088598342396
1	4688	797.631373136343	0.088598342396
1	4693	798.549403032813	0.088598342396
1	4698	798.897426987852	0.088598342396
1	4703	800.296267374814	0.088598342396
1	4708	800.898108898166	0.088598342396
1	4713	801.603541687997	0.088598342396
1	4718	802.310829041971	0.088598342396
1	4723	803.154770476467	0.088598342396
1	4728	804.025802692816	0.088598342396
1	4735	805.119203618055	0.088598342396
1	4738	805.207801960451	0.171631605085
1	4745	806.866321417456	0.088598342396
1	4748	806.954919759852	0.17447487377
1	4753	807.52487982262	0.088598342396
1	4758	808.223807923958	0.088598342396
1	4763	808.388414398271	0.088598342396
1	4768	808.60248339305	0.088598342396
1	4773	809.151403443143	0.088598342396
1	4778	810.047315089114	0.088598342396
1	4783	810.976525500715	0.088598342396
1	4788	811.713323192123	0.088598342396
1	4793	811.995442568655	0.088598342396
1	4798	812.770166754219	0.088598342396
1	4803	814.600508081102	0.088598342396
1	4810	815.002867056378	0.088598342396
1	4813	815.091465398774	0.122608140901
1	4818	815.497729370971	0.088598342396
1	4825	815.828180927709	0.088598342396
1	4828	815.916779270105	0.106538494159
1	4833	816.055198728345	0.088598342396
1	4838	816.144884831048	0.088598342396
1	4843	816.692412520956	0.088598342396
1	4848	816.844604472773	0.088598342396
1	4853	817.603424186794	0.088598342396
1	4858	818.195715754049	0.088598342396
1	4863	818.390130078856	0.088598342396
1	4868	819.50555568249	0.088598342396
1	4873	819.925008652261	0.088598342396
1	4878	820.142411072143	0.088598342396
1	4883	820.27994373278	0.088598342396
1	4888	821.744616564034	0.088598342396
1	4893	822.512127057587	0.088598342396
1	4898	822.925695284561	0.088598342396
1	4903	823.598786026907	0.088598342396
1	4908	824.153351860847	0.088598342396
1	4913	826.046255871275	0.088598342396
1	4919	826.995250886434	0.088598342396
1	4924	827.49701216669	0.088598342396
1	4931	827.769605180574	0.088598342396
1	4934	827.85820352297	0.131886093857
1	4939	828.975673782316	0.088598342396
1	4944	830.256584608959	0.088598342396
1	4949	831.20120383904	0.088598342396
1	4954	831.641998651802	0.088598342396
1	4959	831.840191787955	0.088598342396
1	4964	834.107900806783	0.088598342396
1	4969	834.483321124196	0.088598342396
1	4974	838.075316776884	0.088598342396
1	4979	838.238828120899	0.088598342396
1	4984	838.515079880076	0.088598342396
1	4989	838.64549802209	0.088598342396
1	4994	839.047433884687	0.088598342396
1	4999	839.874084675696	0.088598342396
1	5004	840.554268479953	0.088598342396
1	5009	841.176416130015	0.088598342396
1	5014	843.177436010911	0.088598342396
1	5019	843.28645213985	0.088598342396
1	5026	844.077199987001	0.088598342396
1	5029	844.165798329397	0.147925049901
1	5036	844.554438255023	0.088598342396
1	5039	844.643036597419	0.17091267501
1	5044	845.632513192484	0.088598342396
1	5049	846.301320413672	0.088598342396
1	5054	846.461728426051	0.088598342396
1	5059	847.106768732011	0.088598342396
1	5064	847.653335907231	0.088598342396
1	5069	848.886516183032	0.088598342396
1	5074	849.409997035745	0.088598342396
1	5079	850.263390769581	0.088598342396
1	5084	850.356911630458	0.088598342396
1	5089	851.773134786613	0.088598342396
1	5094	852.148259575775	0.088598342396
1	5099	853.537201972778	0.088598342396
1	5104	853.945416759055	0.088598342396
1	5109	855.409320713717	0.088598342396
1	5114	856.039682432959	0.088598342396
1	5119	856.164753403122	0.088598342396
1	5124	857.588377551866	0.088598342396
1	5129	858.099831634485	0.088598342396
1	5134	859.664874042673	0.088598342396
1	5139	859.922237333554	0.088598342396
1	5144	860.633688579902	0.088598342396
1	5149	861.115288460594	0.088598342396
1	5154	862.074186540239	0.088598342396
1	5159	865.351572030694	0.088598342396
1	5164	867.346595218677	0.088598342396
1	5169	867.964423053043	0.088598342396
1	5176	868.47287783353	0.088598342396
1	5179	868.561476175926	0.103203188905
1	5184	869.469659847862	0.088598342396
1	5189	869.934067803142	0.088598342396
1	5194	870.494201233099	0.088598342396
1	5199	870.647155778134	0.088598342396
1	5204	871.760490751706	0.088598342396
1	5209	872.637737063646	0.088598342396
1	5214	874.031615471035	0.088598342396
1	5219	875.317782195902	0.088598342396
1	5224	875.696823470263	0.088598342396
1	5229	876.051404992413	0.088598342396
1	5234	876.226389732814	0.088598342396
1	5239	876.425237379139	0.088598342396
1	5244	877.215381643874	0.088598342396
1	5249	878.021843609304	0.088598342396
1	5254	879.268747088868	0.088598342396
1	5259	879.587321925698	0.088598342396
1	5264	880.171926482649	0.088598342396
1	5272	880.418100562827	0.088598342396
1	5275	880.506698905223	0.105313727598
1	5280	880.972477237871	0.088598342396
1	5285	881.346142588993	0.088598342396
1	5290	881.717610564351	0.088598342396
1	5295	882.279357887498	0.088598342396
1	5300	882.457711219705	0.088598342396
1	5305	883.08458342927	0.088598342396
1	5310	883.206064682831	0.088598342396
1	5315	884.253854359702	0.088598342396
1	5320	884.7768114985	0.088598342396
1	5325	884.882480714283	0.088598342396
1	5332	885.795352670946	0.088598342396
1	5335	885.883951013342	0.1416353751
1	5340	886.035319996093	0.088598342396
1	5345	886.239605177088	0.088598342396
1	5350	886.984358804849	0.088598342396
1	5355	887.459608652328	0.088598342396
1	5360	890.955296376983	0.088598342396
1	5365	891.174837587288	0.088598342396
1	5370	891.322221735071	0.088598342396
1	5375	892.893982643045	0.088598342396
1	5380	894.20652775383	0.088598342396
1	5385	894.394882981188	0.088598342396
1	5390	894.519448433577	0.088598342396
1	5395	895.299428835352	0.088598342396
1	5400	895.616429464769	0.088598342396
1	5405	897.519697689056	0.088598342396
1	5410	897.970535371763	0.088598342396
1	5415	900.362256520255	0.088598342396
1	5422	900.577596380673	0.088598342396
1	5425	900.666194723069	0.143217313995
1	5432	902.469672604804	0.088598342396
1	5435	902.5582709472	0.149370624365
1	5440	902.694067903474	0.088598342396
1	5445	903.354899387993	0.088598342396
1	5450	905.533589559872	0.088598342396
1	5455	906.653633430809	0.088598342396
1	5460	908.372671224648	0.088598342396
1	5465	910.2420063072	0.088598342396
1	5470	910.785206419452	0.088598342396
1	5475	911.079579079288	0.088598342396
1	5480	913.268564905374	0.088598342396
1	5485	914.217121297225	0.088598342396
1	5492	914.448398984782	0.088598342396
1	5495	914.536997327178	0.104491749426
1	5500	915.05587624569	0.088598342396
1	5505	915.57875599032	0.088598342396
1	5510	917.221105634693	0.088598342396
1	5515	917.398714572923	0.088598342396
1	5520	917.80687501349	0.088598342396
1	5525	918.179997611225	0.088598342396
1	5530	919.64571334602	0.088598342396
1	5537	919.921705559759	0.088598342396
1	5540	920.010303902155	0.176035604566
1	5545	921.295140761646	0.088598342396
1	5552	922.563242784692	0.088598342396
1	5555	922.651841127088	0.16847107089
1	5560	923.325199564572	0.088598342396
1	5565	924.721179391228	0.088598342396
1	5570	925.279384019153	0.088598342396
1	5575	927.193321556592	0.088598342396
1	5580	927.647052533047	0.088598342396
1	5585	928.154688589348	0.088598342396
1	5592	928.292954620777	0.088598342396
1	5597	928.381552963173	0.099815141583
1	5600	928.470151305569	0.15028905723
1	5605	929.972696161292	0.088598342396
1	5610	930.467456761959	0.088598342396
1	5615	930.876993434294	0.088598342396
1	5621	931.930924502075	0.088598342396
1	5628	932.414213539959	0.088598342396
1	5631	932.502811882355	0.146636537263
1	5636	933.178482361231	0.088598342396
1	5641	933.612498495041	0.088598342396
1	5646	934.04341316019	0.088598342396
1	5651	935.696483286341	0.088598342396
1	5656	936.693524830699	0.088598342396
1	5661	937.394932675698	0.088598342396
1	5666	938.29480684319	0.088598342396
1	5673	938.454320759893	0.088598342396
1	5676	938.542919102289	0.131014834703
1	5681	938.971429290681	0.088598342396
1	5686	939.806654686618	0.088598342396
1	5691	940.745631559252	0.088598342396
1	5696	940.960359340199	0.088598342396
1	5703	941.620032334064	0.088598342396
1	5706	941.70863067646	0.1163676821
1	5711	943.177255642252	0.088598342396
1	5716	943.284625422129	0.088598342396
1	5721	943.558307643082	0.088598342396
1	5726	944.627151514285	0.088598342396
1	5731	944.72450147822	0.088598342396
1	5736	945.518776093447	0.088598342396
1	5741	945.779838341697	0.088598342396
1	5746	947.048723746091	0.088598342396
1	5751	947.633881439863	0.088598342396
1	5758	948.504119866965	0.088598342396
1	5761	948.592718209361	0.146650664693
1	5766	949.056450564583	0.088598342396
1	5771	950.738671880704	0.088598342396
1	5776	953.660998078429	0.088598342396
1	5781	955.184875521321	0.088598342396
1	5786	956.241413202931	0.088598342396
1	5791	956.531604510049	0.088598342396
1	5796	957.256250258213	0.088598342396
1	5801	958.194849464353	0.088598342396
1	5808	961.367575261669	0.088598342396
1	5811	961.456173604065	0.124169839021
1	5816	962.260644671953	0.088598342396
1	5821	964.664120433701	0.088598342396
1	5826	966.685000176453	0.088598342396
1	5831	967.928817571484	0.088598342396
1	5836	969.199852092678	0.088598342396
1	5841	969.394900456084	0.088598342396
1	5846	969.937887822972	0.088598342396
1	5851	970.381336743396	0.088598342396
1	5856	971.546518412739	0.088598342396
1	5861	972.774416347403	0.088598342396
1	5866	972.885632932018	0.088598342396
1	5871	973.805146833317	0.088598342396
1	5878	974.351023730719	0.088598342396
1	5881	974.439622073115	0.173183460235
1	5886	975.639904878787	0.088598342396
1	5891	976.34605472327	0.088598342396
1	5896	977.189104063562	0.088598342396
1	5901	977.956556610117	0.088598342396
1	5908	978.229212454029	0.088598342396
1	5911	978.317810796425	0.12782943797
1	5916	979.288320042139	0.088598342396
1	5921	979.519807994362	0.088598342396
1	5926	980.05395898008	0.088598342396
1	5931	981.951164165771	0.088598342396
1	5936	983.183731017691	0.088598342396
1	5941	983.781063405712	0.088598342396
1	5946	983.94295898884	0.088598342396
1	5951	984.677577669711	0.088598342396
1	5956	985.777454105478	0.088598342396
1	5961	986.005065202054	0.088598342396
1	5966	986.218452166419	0.088598342396
1	5972	986.449769076654	0.090824271049
1	5977	986.986024511627	0.088598342396
1	5982	987.489640691104	0.088598342396
1	5987	988.029196743053	0.088598342396
1	5992	989.527882148192	0.088598342396
1	5997	990.642566393775	0.088598342396
1	6002	992.131818857596	0.088598342396
1	6007	992.790233368556	0.088598342396
1	6014	992.963681118664	0.088598342396
1	6019	993.05227946106	0.129873754743
1	6022	993.140877803456	0.128671987537
1	6027	993.591401880817	0.088598342396
1	6032	994.370725863266	0.088598342396
1	6037	994.770233345751	0.088598342396
1	6042	995.002535809634	0.088598342396
1	6047	995.472110121529	0.088598342396
1	6052	995.664473276437	0.088598342396
1	6057	996.015691255601	0.088598342396
1	6062	998.153451139054	0.088598342396
1	6067	999.502846738275	0.088598342396
1	6072	999.863169119881	0.088598342396
2	5	0.644777652251	0
2	10	1.73528108388	0
2	15	2.340294230284	0
2	20	2.930846594326	0
2	25	4.244506972166	0
2	30	4.814314615247	0
2	35	5.334743405086	0
2	40	5.686374368307	0
2	45	6.569294820064	0
2	50	6.792332047342	0
2	55	6.923038400906	0
2	62	7.016004882508	0
2	65	7.104603224904	0.029779723012
2	70	11.741445923531	0
2	75	11.893868527603	0
2	80	12.772363549765	0
2	87	13.411730384421	0
2	90	13.500328726817	0.085089393834
2	95	14.08610407898	0
2	102	14.191311453008	0
2	105	14.279909795404	0.083749875585
2	110	14.481396376404	0
2	115	14.927996620004	0
2	120	18.482003294127	0
2	125	19.208238201717	0
2	130	19.602968670867	0
2	135	20.40900447823	0
2	140	20.560532310184	0
2	145	20.721487383343	0
2	152	21.573158405591	0
2	155	21.661756747987	0.038735679203
2	162	21.977195496346	0
2	165	22.065793838742	0.025974753133
2	170	22.487587208385	0
2	175	24.515473955263	0
2	180	24.999232542782	0
2	185	25.57636906245	0
2	190	25.79179477907	0
2	195	26.231204510703	0
2	200	27.73367543349	0
2	205	27.857741122842	0
2	210	28.313744446674	0
2	215	29.042273139966	0
2	220	29.239668143637	0
2	225	29.98956792467	0
2	230	30.567847528583	0
2	235	30.876385856706	0
2	240	34.042734439228	0
2	245	35.32816332837	0
2	250	36.364342575268	0
2	255	39.12793229595	0
2	260	39.674156160873	0
2	265	39.979606583921	0
2	270	42.080442463867	0
2	275	42.561124920795	0
2	280	43.065216266135	0
2	285	44.982289166271	0
2	290	45.236643797121	0
2	295	45.355882626518	0
2	300	46.119124284204	0
2	307	47.517877239588	0
2	310	47.606475581984	0.01709326196
2	315	48.152730528634	0
2	320	49.378716122947	0
2	325	49.495186566913	0
2	330	50.720381369553	0
2	337	52.528380386809	0
2	340	52.616978729205	0.076047645774
2	345	52.785274699676	0
2	350	54.108310716676	0
2	356	54.339627626911	0.1309864732
2	361	55.262736896085	0
2	366	55.669989493367	0
2	371	56.691177937542	0
2	376	56.871340311636	0
2	381	58.029923421087	0
2	386	58.92384590292	0
2	391	59.387998062012	0
2	396	59.996826722002	0
2	401	60.525602904002	0
2	406	64.651157923618	0
2	411	65.047517509926	0
2	416	65.214424857414	0
2	421	66.722394969897	0
2	426	66.915374342681	0
2	431	68.38485808252	0
2	436	68.813897048804	0
2	441	70.06234142339	0
2	448	70.170910390667	0
2	451	70.259508733063	0.023307490097
2	456	70.886438331325	0
2	461	71.338169147694	0
2	466	71.637791503511	0
2	471	72.431889319433	0
2	478	73.093789571248	0
2	481	73.182387913644	0.007386871847
2	486	73.730500147974	0
2	491	74.628001274474	0
2	496	75.53205052851	0
2	501	76.043170463944	0
2	506	76.490667993581	0
2	511	76.694548295558	0
2	516	76.973567438143	0
2	521	77.931180233956	0
2	526	79.40026001162	0
2	531	80.152663731454	0
2	536	80.435472999035	0
2	543	80.921045299075	0
2	546	81.009643641471	0.058942935501
2	551	81.122021665954	0
2	558	82.470820392948	0
2	563	82.559418735344	0.002921144954
2	566	82.64801707774	0.057143682404
2	571	82.818613529589	0
2	576	83.672168729021	0
2	583	84.038673391195	0
2	586	84.127271733591	0.07849536095
2	591	84.634370311398	0
2	596	85.03906660663	0
2	603	88.606420139355	0
2	608	88.695018481751	0.08254892955
2	611	88.783616824147	0.03597953499
2	616	91.012062459354	0
2	623	91.579821350487	0
2	626	91.668419692883	0.031206703317
2	631	91.911489856136	0
2	636	92.964790233324	0
2	641	93.445181200462	0
2	646	93.820023603119	0
2	651	94.861040414933	0
2	656	95.354821056846	0
2	661	96.459733934662	0
2	666	98.454420618914	0
2	671	98.630264568809	0
2	676	99.0078568979	0
2	681	100.95030581249	0
2	686	101.126371710973	0
2	691	101.219470519675	0
2	700	103.554230290685	0
2	703	103.642828633081	0.050216820768
2	707	103.874145543316	0.276590564588
2	714	106.518930816666	0
2	717	106.607529159062	0.064213080884
2	722	106.922351748065	0
2	727	108.033533316069	0
2	732	108.273013251226	0
2	737	109.166375818025	0
2	742	109.720022959209	0
2	747	109.9100560474	0
2	752	111.401418991765	0
2	757	111.722211497096	0
2	762	111.908546455636	0
2	767	113.67506749733	0
2	772	114.869738999504	0
2	777	115.246512890156	0
2	782	117.740333670659	0
2	787	118.642055401114	0
2	792	119.563305041333	0
2	797	119.920584493324	0
2	802	120.939102225937	0
2	811	121.129517867783	0
2	814	121.218116210179	0.02571548496
2	817	121.306714552575	0.10745198732
2	822	121.873200903899	0
2	827	122.527411093579	0
2	832	122.79456941943	0
2	837	124.483418367138	0
2	842	124.676045806764	0
2	847	128.718284396625	0
2	852	130.340244435222	0
2	857	131.563700443674	0
2	864	132.838008373466	0
2	867	132.926606715862	0.06456141233
2	872	133.183153537257	0
2	877	134.072547954953	0
2	882	134.479775417158	0
2	887	134.7572004173	0
2	894	135.229408304118	0
2	897	135.318006646514	0.055247530738
2	902	135.629340343889	0
2	907	136.318013717055	0
2	912	137.56898563371	0
2	917	137.876292401971	0
2	922	140.451102018529	0
2	927	140.748973841449	0
2	934	140.994786196943	0
2	937	141.083384539339	0.004711161589
2	942	141.74939520141	0
2	947	141.915464464277	0
2	952	143.149642761972	0
2	957	144.330120772188	0
2	962	144.496295891491	0
2	967	144.743248810391	0
2	972	145.343515157038	0
2	977	145.792081177829	0
2	982	146.04222502021	0
2	987	146.701454875018	0
2	992	147.253877676319	0
2	997	148.121138492079	0
2	1002	152.597158107333	0
2	1009	153.326121898317	0
2	1012	153.414720240713	0.014762018469
2	1017	153.875099295647	0
2	1022	154.702431238615	0
2	1029	155.266430047623	0
2	1032	155.355028390019	0.01361959705
2	1037	155.964752027779	0
2	1042	156.411010451266	0
2	1047	157.407197422211	0
2	1052	158.197297956152	0
2	1062	159.765625337909	0
2	1065	159.854223680305	0.075955085688
2	1068	159.942822022701	0.12276822622
2	1073	160.143754523139	0
2	1078	160.66872872184	0
2	1083	161.193650681817	0
2	1090	166.248628651445	0
2	1093	166.337226993841	0.021521883349
2	1102	166.794635083335	0
2	1105	166.883233425731	0.086987026735
2	1108	166.971831768127	0.127802892596
2	1113	167.278971793434	0
2	1118	169.510551481738	0
2	1123	171.342935187956	0
2	1128	172.771776837006	0
2	1133	173.421231445569	0
2	1138	173.583703707623	0
2	1143	173.927429323222	0
2	1148	176.667365965331	0
2	1153	178.071323278606	0
2	1158	178.293694683711	0
2	1165	178.449169558977	0
2	1168	178.537767901373	0.061561169193
2	1173	181.785913943911	0
2	1178	182.087153639442	0
2	1183	183.79567311679	0
2	1190	184.72920587076	0
2	1193	184.817804213156	0.080310226766
2	1198	186.333083779905	0
2	1203	188.349198037694	0
2	1208	189.723745713244	0
2	1213	190.387624424855	0
2	1218	190.65623871194	0
2	1223	192.22235697407	0
2	1228	192.604392484141	0
2	1233	195.063193437646	0
2	1238	195.574937552446	0
2	1243	196.281647712842	0
2	1248	197.057492177678	0
2	1253	197.840975237712	0
2	1258	198.453226800484	0
2	1263	199.595924100354	0
2	1268	199.999294080799	0
2	1273	200.764949655266	0
2	1280	200.935164172089	0
2	1283	201.023762514485	0.020748233767
2	1288	201.17381188765	0
2	1293	202.093412727102	0
2	1298	203.200238308533	0
2	1303	204.445443523137	0
2	1308	206.803389419104	0
2	1313	210.359664162074	0
2	1318	210.448781512436	0
2	1323	210.957868389158	0
2	1330	212.20755236116	0
2	1333	212.296150703556	0.061440129449
2	1338	212.438065127277	0
2	1343	213.05607231413	0
2	1348	213.381539014799	0
2	1353	214.71472598783	0
2	1360	215.333108147948	0
2	1363	215.421706490344	0.022836237886
2	1368	217.637702712641	0
2	1373	217.728491229057	0
2	1378	218.529378911522	0
2	1383	219.337073681495	0
2	1388	219.535623378154	0
2	1393	220.320323746496	0
2	1398	223.838562186928	0
2	1403	228.114711731989	0
2	1409	229.235011024142	0
2	1414	230.324420634275	0
2	1419	232.25049660709	0
2	1424	232.442468632712	0
2	1429	233.3886109188	0
2	1436	234.174921569436	0
2	1439	234.263519911832	0.035686839077
2	1444	234.671384377079	0
2	1449	238.621010572591	0
2	1456	240.139358325951	0
2	1461	240.227956668347	0.027299457721
2	1464	240.316555010743	0.038954579272
2	1469	241.446870729778	0
2	1476	241.584245415838	0
2	1479	241.672843758234	0.012591004161
2	1484	242.649758206359	0
2	1489	242.826178451901	0
2	1496	243.453248198337	0
2	1499	243.541846540733	0.069596286439
2	1504	245.203109109355	0
2	1509	245.44346477724	0
2	1514	245.917304909774	0
2	1519	247.886913992161	0
2	1524	248.139655151168	0
2	1529	248.250916895383	0
2	1534	248.883315608278	0
2	1539	250.889296026413	0
2	1544	251.600233436998	0
2	1549	252.495171679739	0
2	1554	252.823355165408	0
2	1559	253.87536718837	0
2	1564	253.985444860348	0
2	1569	254.942292702484	0
2	1574	255.701378038252	0
2	1579	256.248881514386	0
2	1584	256.445414891717	0
2	1589	256.656724576962	0
2	1594	259.874349829874	0
2	1601	260.088749932151	0
2	1604	260.177348274547	0.052454735366
2	1609	260.291162545963	0
2	1614	260.716312387796	0
2	1619	262.83939534791	0
2	1624	263.138758782152	0
2	1629	264.083598132498	0
2	1634	264.348442188788	0
2	1639	265.444363098879	0
2	1646	267.292031334888	0
2	1649	267.380629677284	0.076368166327
2	1654	267.929124914949	0
2	1659	268.802626918744	0
2	1664	269.388704361223	0
2	1669	269.875334310721	0
2	1674	270.106428011079	0
2	1679	270.506953591883	0
2	1684	271.286479704123	0
2	1689	274.940324589428	0
2	1694	275.227446765058	0
2	1699	276.118786860181	0
2	1704	278.160239583933	0
2	1709	278.300983778113	0
2	1714	280.366509025265	0
2	1719	280.698341543574	0
2	1724	281.0647989171	0
2	1729	282.506843199719	0
2	1734	285.00936246729	0
2	1739	285.548516189497	0
2	1746	286.585289843645	0
2	1749	286.673888186041	0.071112693296
2	1758	286.934364851647	0
2	1764	287.165681761882	0.215114222143
2	1767	287.254280104278	0.234576418082
2	1770	287.342878446674	0.116555666832
2	1775	287.54331355232	0
2	1780	289.214220882563	0
2	1785	289.343181734758	0
2	1790	289.513479162249	0
2	1795	289.604980623128	0
2	1800	291.230409304562	0
2	1807	293.477916083137	0
2	1810	293.566514425533	0.056644476833
2	1815	293.810247732753	0
2	1820	294.526216287085	0
2	1825	295.469450679944	0
2	1830	295.790067385457	0
2	1835	296.996038651617	0
2	1840	298.079573780374	0
2	1845	298.41031622306	0
2	1850	299.809278598144	0
2	1855	299.99314560243	0
2	1860	300.218909170241	0
2	1865	302.158253349831	0
2	1870	304.157482120383	0
2	1875	305.946753994667	0
2	1880	306.38065411095	0
2	1885	308.310612074499	0
2	1890	310.115836994314	0
2	1895	311.848395129009	0
2	1900	312.516869925197	0
2	1905	312.844375047482	0
2	1910	313.546459861135	0
2	1915	313.710954888255	0
2	1920	314.962295288387	0
2	1927	316.383231392823	0
2	1930	316.471829735219	0.021834696631
2	1935	316.855118930592	0
2	1940	318.204096548931	0
2	1945	319.336544669583	0
2	1950	320.473875636519	0
2	1955	321.876767847647	0
2	1960	322.190537415865	0
2	1965	322.813178615809	0
2	1970	322.926923556905	0
2	1975	323.31738407714	0
2	1980	323.572765653387	0
2	1985	324.802638286867	0
2	1990	325.393681464768	0
2	1995	326.977105177511	0
2	2000	328.184330410303	0
2	2005	329.051627174566	0
2	2010	331.037343796901	0
2	2015	331.750167247384	0
2	2020	332.04575255146	0
2	2025	332.348832243088	0
2	2030	332.488153626553	0
2	2035	333.478348395588	0
2	2040	333.832036096223	0
2	2045	334.505101034805	0
2	2050	335.449508159035	0
2	2055	337.507951914812	0
2	2060	339.346968330335	0
2	2065	340.541739849134	0
2	2072	341.492970513327	0
2	2077	341.581568855723	0.01810252151
2	2080	341.670167198119	0.066866585446
2	2085	342.870651128432	0
2	2090	343.227870195193	0
2	2095	344.170366424878	0
2	2102	344.617867014112	0
2	2105	344.706465356508	0.032638765217
2	2113	347.424707149424	0
2	2118	347.51330549182	0.032040560121
2	2121	347.601903834216	0.070950028305
2	2126	350.242112211002	0
2	2131	353.328717682017	0
2	2136	353.528239856891	0
2	2141	353.639179930297	0
2	2146	354.597872239876	0
2	2151	356.003226031383	0
2	2156	356.565546094655	0
2	2161	358.325611047353	0
2	2168	358.707579117553	0
2	2171	358.796177459949	0.028524502937
2	2176	359.519060361365	0
2	2181	360.217056904082	0
2	2186	361.84480872374	0
2	2191	364.371277406088	0
2	2196	364.709490893478	0
2	2201	366.066728964326	0
2	2206	367.305294973539	0
2	2211	367.755875365055	0
2	2216	370.495069328317	0
2	2221	371.42786903913	0
2	2226	371.691871211665	0
2	2231	372.463665061979	0
2	2236	374.006614813021	0
2	2241	374.532721374606	0
2	2246	375.677478486928	0
2	2251	377.512320465636	0
2	2256	378.241704749978	0
2	2261	379.544471020653	0
2	2266	380.991183793512	0
2	2271	382.401541121291	0
2	2276	383.04251198861	0
2	2281	387.174976999547	0
2	2286	388.375466043231	0
2	2291	388.683178620819	0
2	2298	390.397671419152	0
2	2301	390.486269761548	0.035548184701
2	2306	390.781694418402	0
2	2313	391.889491977065	0
2	2316	391.978090319461	0.068808893529
2	2323	400.111364622652	0
2	2326	400.199962965048	0.020178661899
2	2331	401.031658496731	0
2	2336	401.543724400244	0
2	2341	402.272900579441	0
2	2346	403.645675995415	0
2	2351	404.387863377578	0
2	2356	404.797826782447	0
2	2361	405.317730242035	0
2	2366	405.490047606028	0
2	2371	405.784444833371	0
2	2376	406.502618366662	0
2	2381	407.566456227789	0
2	2386	407.706736945672	0
2	2391	408.328930219696	0
2	2396	408.447954539979	0
2	2401	408.830068070821	0
2	2406	409.50938031163	0
2	2411	409.968206177325	0
2	2416	412.844704316808	0
2	2421	414.347035899953	0
2	2426	419.484727078459	0
2	2431	420.389831141629	0
2	2438	420.577973441154	0
2	2441	420.66657178355	0.071560389246
2	2448	421.078063050138	0
2	2451	421.166661392534	0.016968494519
2	2456	421.771261096089	0
2	2462	422.542458558522	0
2	2467	422.638770861688	0
2	2472	423.440893876633	0
2	2477	424.147895259235	0
2	2482	428.530930542269	0
2	2487	429.165980530069	0
2	2492	429.650930335343	0
2	2497	429.766822890651	0
2	2502	430.399640035389	0
2	2507	430.500158814958	0
2	2512	431.498935909765	0
2	2517	432.313039183298	0
2	2522	432.747565190776	0
2	2527	436.43205714132	0
2	2532	437.772040024964	0
2	2537	438.247225519937	0
2	2542	438.476304817789	0
2	2547	438.724813227905	0
2	2552	439.601950545542	0
2	2557	442.325000207706	0
2	2562	442.699600102456	0
2	2567	443.407071414638	0
2	2572	443.801318044298	0
2	2577	445.848761624293	0
2	2582	446.45805093106	0
2	2587	446.951697354825	0
2	2594	447.423060320654	0
2	2597	447.51165866305	0.013053502226
2	2604	447.844647130944	0
2	2607	447.93324547334	0.035404700897
2	2612	449.697251230267	0
2	2617	450.776810231884	0
2	2622	451.033405091299	0
2	2627	451.621996526857	0
2	2632	451.713130958017	0
2	2637	452.528784814661	0
2	2642	452.750794334227	0
2	2647	452.937547133602	0
2	2654	454.494340698026	0
2	2657	454.582939040422	0.024950152309
2	2662	455.24870286293	0
2	2667	455.874493392378	0
2	2672	457.055686249773	0
2	2677	457.382508650462	0
2	2682	458.640294739966	0
2	2687	458.92672230202	0
2	2692	459.247462312527	0
2	2697	459.618969195927	0
2	2702	461.463309471016	0
2	2707	461.660697384132	0
2	2712	461.884405926731	0
2	2717	462.183446839889	0
2	2722	462.399470508841	0
2	2727	463.131985373447	0
2	2732	464.074801089503	0
2	2737	464.68393996882	0
2	2742	464.910872289162	0
2	2747	467.169837565389	0
2	2754	468.518291431845	0
2	2757	468.606889774241	0.050209083374
2	2762	469.333577354833	0
2	2767	469.910169347132	0
2	2772	470.617726734624	0
2	2779	474.850576659775	0
2	2782	474.939175002171	0.019506209616
2	2787	475.22891082404	0
2	2792	478.035230666743	0
2	2799	479.012978316848	0
2	2802	479.101576659244	0.077074921897
2	2807	480.632571935426	0
2	2813	480.863888845661	0.029593243935
2	2818	482.281486063375	0
2	2823	482.996847643501	0
2	2828	483.644262221622	0
2	2833	484.13321430249	0
2	2838	485.749958973251	0
2	2843	486.096240982106	0
2	2848	486.947952573731	0
2	2853	488.060143757105	0
2	2860	492.507393510836	0
2	2863	492.595991853232	0.067740336367
2	2868	493.697618952107	0
2	2873	494.048887097094	0
2	2878	495.110414135155	0
2	2885	495.274044430773	0
2	2888	495.362642773169	0.042280857724
2	2893	498.587905709392	0
2	2898	498.691262158955	0
2	2903	499.279601536825	0
2	2910	499.949182520401	0
2	2913	500.037780862797	0.009951060858
2	2918	500.471044844308	0
2	2923	500.65441219878	0
2	2928	501.103574907419	0
2	2933	501.212174787945	0
2	2940	501.524100768503	0
2	2943	501.612699110899	0.023043467503
2	2948	504.829437010506	0
2	2953	505.094393529052	0
2	2958	505.504639534124	0
2	2963	505.6039492582	0
2	2968	506.439596541713	0
2	2973	507.63686379116	0
2	2978	508.222815285048	0
2	2983	508.382391480147	0
2	2988	508.942017223868	0
2	2993	510.556277637797	0
2	2998	512.633559686392	0
2	3003	513.1356832652	0
2	3008	514.186639157875	0
2	3013	514.568157950529	0
2	3018	515.254233515622	0
2	3023	515.759797566698	0
2	3028	516.850559735896	0
2	3033	518.521515648748	0
2	3038	519.045467763457	0
2	3043	520.898437763965	0
2	3048	522.040905204764	0
2	3053	522.496004003486	0
2	3058	522.629502854408	0
2	3063	523.174655904862	0
2	3068	524.207697614207	0
2	3075	525.638136465399	0
2	3078	525.726734807795	0.048046155498
2	3085	527.118944884422	0
2	3088	527.207543226818	0.070366819778
2	3093	528.285040711224	0
2	3098	530.483156369881	0
2	3103	532.45728463769	0
2	3108	532.865163652784	0
2	3115	533.14097756984	0
2	3118	533.229575912236	0.081746901779
2	3123	534.063815832298	0
2	3128	534.729848617625	0
2	3133	534.914743150146	0
2	3138	535.287152221596	0
2	3143	535.746511834971	0
2	3150	536.376071086938	0
2	3153	536.464669429334	0.008834729406
2	3158	536.744886077248	0
2	3164	537.617760354578	0
2	3171	539.274419538352	0
2	3174	539.363017880748	0.063353438413
2	3179	540.184052559844	0
2	3186	541.071681119018	0
2	3189	541.160279461414	0.083792682327
2	3194	542.345698602589	0
2	3199	544.03311857123	0
2	3204	544.195788351682	0
2	3209	544.526339711295	0
2	3214	544.826445246385	0
2	3219	548.295511262191	0
2	3224	548.508894879394	0
2	3229	548.968735121562	0
2	3234	550.008975218365	0
2	3241	550.375062229864	0
2	3244	550.46366057226	0.085924860619
2	3249	550.598269949976	0
2	3254	553.028320743787	0
2	3259	553.208733619949	0
2	3264	554.535427065032	0
2	3269	556.285343885053	0
2	3274	556.916456840868	0
2	3279	557.921520101993	0
2	3284	560.291215538224	0
2	3289	560.866891996922	0
2	3294	561.235268885751	0
2	3299	561.572730612767	0
2	3304	562.793124274251	0
2	3309	563.04118522694	0
2	3314	564.90501175297	0
2	3321	566.282897609695	0
2	3324	566.371495952091	0.046922952306
2	3329	566.697947680254	0
2	3334	567.462335541782	0
2	3339	568.17797109742	0
2	3344	569.204292663152	0
2	3349	569.769841002769	0
2	3354	570.001923393486	0
2	3359	571.488767663027	0
2	3366	571.798804353251	0
2	3371	571.887402695647	0.037883196362
2	3374	571.976001038043	0.014672622292
2	3379	572.849899281614	0
2	3384	573.659701059579	0
2	3389	574.434507123132	0
2	3394	576.663287897909	0
2	3399	578.377108587727	0
2	3404	579.90765209711	0
2	3411	580.374532139847	0
2	3414	580.463130482243	0.019131356827
2	3419	582.816224154937	0
2	3424	583.446054480884	0
2	3429	583.744786932145	0
2	3434	584.173552229359	0
2	3439	584.754769262812	0
2	3446	585.423358726089	0
2	3449	585.511957068485	0.015720583378
2	3454	586.54868477414	0
2	3459	587.230629563631	0
2	3464	589.176718319338	0
2	3469	589.330146397124	0
2	3474	592.999163128068	0
2	3479	593.201548521111	0
2	3484	593.497329140267	0
2	3489	594.570002084407	0
2	3494	595.941220090272	0
2	3503	596.072960670876	0
2	3506	596.161559013272	0.038525943599
2	3509	596.250157355668	0.096677485067
2	3515	596.990980451207	0
2	3520	597.441036066474	0
2	3525	597.70511779366	0
2	3530	598.122164775855	0
2	3535	598.775900419147	0
2	3540	599.574554769706	0
2	3545	601.507681800563	0
2	3550	601.671469937278	0
2	3555	603.015932858038	0
2	3560	603.31394299874	0
2	3565	603.921920760449	0
2	3570	604.303276126788	0
2	3575	604.778894242132	0
2	3580	604.911084305554	0
2	3585	606.274926751749	0
2	3590	606.388178123573	0
2	3595	607.29282274475	0
2	3600	607.386904512845	0
2	3605	607.537200227828	0
2	3610	608.586333833413	0
2	3617	609.77159842225	0
2	3620	609.860196764646	0.03667122097
2	3625	610.080063527499	0
2	3630	611.034768917374	0
2	3637	611.71400306534	0
2	3640	611.802601407736	0.004305759639
2	3645	613.971129484119	0
2	3650	614.328557283464	0
2	3655	614.502708916479	0
2	3660	614.958543614701	0
2	3665	615.733725365012	0
2	3670	616.198480700996	0
2	3675	616.318619169441	0
2	3680	616.749410443844	0
2	3685	617.228195150646	0
2	3690	617.840664628868	0
2	3697	618.431607746977	0
2	3700	618.520206089373	0.00418800883
2	3705	618.822450214003	0
2	3712	619.104611840413	0
2	3715	619.193210182809	0.01577104373
2	3720	619.541310007	0
2	3725	619.847170948666	0
2	3730	622.28422079653	0
2	3735	622.744393856824	0
2	3740	622.914439528481	0
2	3745	627.048839732805	0
2	3750	628.005303824512	0
2	3755	634.236820514379	0
2	3760	635.090434503391	0
2	3765	635.347884461172	0
2	3770	635.438321692407	0
2	3775	636.698692278861	0
2	3780	636.904423161975	0
2	3785	637.306525908604	0
2	3792	637.456055428606	0
2	3795	637.544653771002	0.060767114546
2	3800	638.178844815777	0
2	3807	638.74894143152	0
2	3810	638.837539773916	0.06578485084
2	3815	639.220908847404	0
2	3820	640.5692991868	0
2	3825	641.261839668147	0
2	3830	641.443380942676	0
2	3835	641.777688229636	0
2	3840	642.028775321386	0
2	3847	642.446754370345	0
2	3850	642.535352712741	0.002171370438
2	3855	646.01358440598	0
2	3860	646.305133723411	0
2	3866	647.664278297573	0
2	3871	647.968710287648	0
2	3876	648.162269969891	0
2	3881	648.835233721516	0
2	3886	650.005308480576	0
2	3891	650.163079582462	0
2	3896	650.626733180601	0
2	3901	651.794207651672	0
2	3906	653.6592872896	0
2	3911	655.013528434973	0
2	3918	655.213995185829	0
2	3921	655.302593528225	0.075461397414
2	3926	655.730565163881	0
2	3933	655.83878942382	0
2	3936	655.927387766216	0.045371265648
2	3941	656.383749802298	0
2	3946	658.1331719677	0
2	3953	658.288713624469	0
2	3956	658.377311966865	0.085146697117
2	3961	658.573558783207	0
2	3966	662.013461309314	0
2	3971	662.834637566514	0
2	3976	662.988769802698	0
2	3981	663.6421282953	0
2	3986	663.780775852363	0
2	3991	664.744689155435	0
2	3996	664.990258341874	0
2	4001	665.376926987284	0
2	4006	666.348363512809	0
2	4011	667.547888266184	0
2	4016	672.362411947711	0
2	4023	672.6310169529	0
2	4026	672.719615295296	0.065294919939
2	4031	673.002747934087	0
2	4036	673.105217190719	0
2	4041	673.6942843013	0
2	4048	674.71957977319	0
2	4051	674.808178115586	0.015990644714
2	4058	675.515207883569	0
2	4061	675.603806225965	0.073873623132
2	4066	677.879428500633	0
2	4071	678.069592906512	0
2	4076	679.514922295164	0
2	4081	680.882710439617	0
2	4086	681.268772327666	0
2	4091	682.894386391152	0
2	4096	683.119040140225	0
2	4101	683.380398491962	0
2	4106	687.950111252901	0
2	4111	688.474410671142	0
2	4116	688.761097953677	0
2	4121	689.009644979185	0
2	4126	690.098546228855	0
2	4131	690.467696622608	0
2	4136	691.010542237061	0
2	4141	691.71419767677	0
2	4146	692.270228743572	0
2	4151	693.799792765497	0
2	4156	696.636387795303	0
2	4161	696.733195364953	0
2	4166	699.534660975944	0
2	4171	700.326333591595	0
2	4176	700.568242963491	0
2	4181	701.996205505598	0
2	4186	703.236688163341	0
2	4193	704.43088165685	0
2	4196	704.519479999246	0.040217781967
2	4201	704.628817883741	0
2	4206	704.938165337945	0
2	4211	706.184953974262	0
2	4217	706.591373040299	0
2	4222	708.851532656168	0
2	4227	709.123315782042	0
2	4234	709.602752083019	0
2	4237	709.691350425415	0.084948130692
2	4242	709.840330675371	0
2	4247	711.086101779268	0
2	4252	711.209137770319	0
2	4257	712.023636802292	0
2	4262	712.763025720175	0
2	4267	713.826147748389	0
2	4272	713.933642731857	0
2	4277	715.936711710069	0
2	4282	717.674750775869	0
2	4287	722.599204257302	0
2	4292	724.961298079122	0
2	4297	725.425347134609	0
2	4302	726.633308094026	0
2	4307	726.753336512387	0
2	4314	729.524125702567	0
2	4317	729.612724044963	0.025186119129
2	4322	731.019516637461	0
2	4327	734.526299620216	0
2	4334	735.415697987311	0
2	4337	735.504296329707	0.087282003018
2	4342	735.625877516718	0
2	4347	735.835856868621	0
2	4352	736.293764267673	0
2	4357	736.600584980551	0
2	4362	737.073483103263	0
2	4367	738.461474744486	0
2	4372	740.493742789925	0
2	4377	740.86067969219	0
2	4382	740.973283630175	0
2	4387	743.36958520984	0
2	4392	744.005364194695	0
2	4397	744.743959798221	0
2	4402	744.88580765847	0
2	4407	747.388601204405	0
2	4412	748.20817382538	0
2	4417	750.012533318043	0
2	4422	750.768541936032	0
2	4427	751.199151654954	0
2	4432	752.241886591618	0
2	4437	756.099347321576	0
2	4442	758.430159536993	0
2	4447	759.391498983632	0
2	4454	761.633503405458	0
2	4457	761.722101747854	0.000532450498
2	4462	762.142819812977	0
2	4467	762.768424875163	0
2	4474	765.297943616367	0
2	4477	765.386541958763	0.046780531938
2	4484	765.959095679952	0
2	4489	766.047694022348	0.055819407403
2	4492	766.136292364744	0.034433648235
2	4499	766.584457587317	0
2	4502	766.673055929713	0.047463059579
2	4507	766.950893883688	0
2	4512	768.26484843103	0
[...]
7	3224	548.508894879394	0
7	3229	548.968735121562	0
7	3234	550.008975218365	0
7	3241	550.375062229864	0
7	3244	550.46366057226	0
7	3249	550.598269949976	0
7	3254	553.028320743787	0
7	3259	553.208733619949	0
7	3264	554.535427065032	0
7	3269	556.285343885053	0
7	3274	556.916456840868	0
7	3279	557.921520101993	0
7	3284	560.291215538224	0
7	3289	560.866891996922	0
7	3294	561.235268885751	0
7	3299	561.572730612767	0
7	3304	562.793124274251	0
7	3309	563.04118522694	0
7	3314	564.90501175297	0
7	3321	566.282897609695	0
7	3324	566.371495952091	0
7	3329	566.697947680254	0
7	3334	567.462335541782	0
7	3339	568.17797109742	0
7	3344	569.204292663152	0
7	3349	569.769841002769	0
7	3354	570.001923393486	0
7	3359	571.488767663027	0
7	3366	571.798804353251	0
7	3371	571.887402695647	0
7	3374	571.976001038043	0
7	3379	572.849899281614	0
7	3384	573.659701059579	0
7	3389	574.434507123132	0
7	3394	576.663287897909	0
7	3399	578.377108587727	0
7	3404	579.90765209711	0
7	3411	580.374532139847	0
7	3414	580.463130482243	0
7	3419	582.816224154937	0
7	3424	583.446054480884	0
7	3429	583.744786932145	0
7	3434	584.173552229359	0
7	3439	584.754769262812	0
7	3446	585.423358726089	0
7	3449	585.511957068485	0
7	3454	586.54868477414	0
7	3459	587.230629563631	0
7	3464	589.176718319338	0
7	3469	589.330146397124	0
7	3474	592.999163128068	0
7	3479	593.201548521111	0
7	3484	593.497329140267	0
7	3489	594.570002084407	0
7	3494	595.941220090272	0
7	3503	596.072960670876	0
7	3506	596.161559013272	0
7	3509	596.250157355668	0
7	3515	596.990980451207	0
7	3520	597.441036066474	0
7	3525	597.70511779366	0
7	3530	598.122164775855	0
7	3535	598.775900419147	0
7	3540	599.574554769706	0
7	3545	601.507681800563	0
7	3550	601.671469937278	0
7	3555	603.015932858038	0
7	3560	603.31394299874	0
7	3565	603.921920760449	0
7	3570	604.303276126788	0
7	3575	604.778894242132	0
7	3580	604.911084305554	0
7	3585	606.274926751749	0
7	3590	606.388178123573	0
7	3595	607.29282274475	0
7	3600	607.386904512845	0
7	3605	607.537200227828	0
7	3610	608.586333833413	0
7	3617	609.77159842225	0
7	3620	609.860196764646	0
7	3625	610.080063527499	0
7	3630	611.034768917374	0
7	3637	611.71400306534	0
7	3640	611.802601407736	0
7	3645	613.971129484119	0
7	3650	614.328557283464	0
7	3655	614.502708916479	0
7	3660	614.958543614701	0
7	3665	615.733725365012	0
7	3670	616.198480700996	0
7	3675	616.318619169441	0
7	3680	616.749410443844	0
7	3685	617.228195150646	0
7	3690	617.840664628868	0
7	3697	618.431607746977	0
7	3700	618.520206089373	0
7	3705	618.822450214003	0
7	3712	619.104611840413	0
7	3715	619.193210182809	0
7	3720	619.541310007	0
7	3725	619.847170948666	0
7	3730	622.28422079653	0
7	3735	622.744393856824	0
7	3740	622.914439528481	0
7	3745	627.048839732805	0
7	3750	628.005303824512	0
7	3755	634.236820514379	0
7	3760	635.090434503391	0
7	3765	635.347884461172	0
7	3770	635.438321692407	0
7	3775	636.698692278861	0
7	3780	636.904423161975	0
7	3785	637.306525908604	0
7	3792	637.456055428606	0
7	3795	637.544653771002	0
7	3800	638.178844815777	0
7	3807	638.74894143152	0
7	3810	638.837539773916	0
7	3815	639.220908847404	0
7	3820	640.5692991868	0
7	3825	641.261839668147	0
7	3830	641.443380942676	0
7	3835	641.777688229636	0
7	3840	642.028775321386	0
7	3847	642.446754370345	0
7	3850	642.535352712741	0
7	3855	646.01358440598	0
7	3860	646.305133723411	0
7	3866	647.664278297573	0
7	3871	647.968710287648	0
7	3876	648.162269969891	0
7	3881	648.835233721516	0
7	3886	650.005308480576	0
7	3891	650.163079582462	0
7	3896	650.626733180601	0
7	3901	651.794207651672	0
7	3906	653.6592872896	0
7	3911	655.013528434973	0
7	3918	655.213995185829	0
7	3921	655.302593528225	0
7	3926	655.730565163881	0
7	3933	655.83878942382	0
7	3936	655.927387766216	0
7	3941	656.383749802298	0
7	3946	658.1331719677	0
7	3953	658.288713624469	0
7	3956	658.377311966865	0
7	3961	658.573558783207	0
7	3966	662.013461309314	0
7	3971	662.834637566514	0
7	3976	662.988769802698	0
7	3981	663.6421282953	0
7	3986	663.780775852363	0
7	3991	664.744689155435	0
7	3996	664.990258341874	0
7	4001	665.376926987284	0
7	4006	666.348363512809	0
7	4011	667.547888266184	0
7	4016	672.362411947711	0
7	4023	672.6310169529	0
7	4026	672.719615295296	0
7	4031	673.002747934087	0
7	4036	673.105217190719	0
7	4041	673.6942843013	0
7	4048	674.71957977319	0
7	4051	674.808178115586	0
7	4058	675.515207883569	0
7	4061	675.603806225965	0
7	4066	677.879428500633	0
7	4071	678.069592906512	0
7	4076	679.514922295164	0
7	4081	680.882710439617	0
7	4086	681.268772327666	0
7	4091	682.894386391152	0
7	4096	683.119040140225	0
7	4101	683.380398491962	0
7	4106	687.950111252901	0
7	4111	688.474410671142	0
7	4116	688.761097953677	0
7	4121	689.009644979185	0
7	4126	690.098546228855	0
7	4131	690.467696622608	0
7	4136	691.010542237061	0
7	4141	691.71419767677	0
7	4146	692.270228743572	0
7	4151	693.799792765497	0
7	4156	696.636387795303	0
7	4161	696.733195364953	0
7	4166	699.534660975944	0
7	4171	700.326333591595	0
7	4176	700.568242963491	0
7	4181	701.996205505598	0
7	4186	703.236688163341	0
7	4193	704.43088165685	0
7	4196	704.519479999246	0
7	4201	704.628817883741	0
7	4206	704.938165337945	0
7	4211	706.184953974262	0
7	4217	706.591373040299	0
7	4222	708.851532656168	0
7	4227	709.123315782042	0
7	4234	709.602752083019	0
7	4237	709.691350425415	0
7	4242	709.840330675371	0
7	4247	711.086101779268	0
7	4252	711.209137770319	0
7	4257	712.023636802292	0
7	4262	712.763025720175	0
7	4267	713.826147748389	0
7	4272	713.933642731857	0
7	4277	715.936711710069	0
7	4282	717.674750775869	0
7	4287	722.599204257302	0
7	4292	724.961298079122	0
7	4297	725.425347134609	0
7	4302	726.633308094026	0
7	4307	726.753336512387	0
7	4314	729.524125702567	0
7	4317	729.612724044963	0
7	4322	731.019516637461	0
7	4327	734.526299620216	0
7	4334	735.415697987311	0
7	4337	735.504296329707	0
7	4342	735.625877516718	0
7	4347	735.835856868621	0
7	4352	736.293764267673	0
7	4357	736.600584980551	0
7	4362	737.073483103263	0
7	4367	738.461474744486	0
7	4372	740.493742789925	0
7	4377	740.86067969219	0
7	4382	740.973283630175	0
7	4387	743.36958520984	0
7	4392	744.005364194695	0
7	4397	744.743959798221	0
7	4402	744.88580765847	0
7	4407	747.388601204405	0
7	4412	748.20817382538	0
7	4417	750.012533318043	0
7	4422	750.768541936032	0
7	4427	751.199151654954	0
7	4432	752.241886591618	0
7	4437	756.099347321576	0
7	4442	758.430159536993	0
7	4447	759.391498983632	0
7	4454	761.633503405458	0
7	4457	761.722101747854	0
7	4462	762.142819812977	0
7	4467	762.768424875163	0
7	4474	765.297943616367	0
7	4477	765.386541958763	0
7	4484	765.959095679952	0
7	4489	766.047694022348	0
7	4492	766.136292364744	0
7	4499	766.584457587317	0
7	4502	766.673055929713	0
7	4507	766.950893883688	0
7	4512	768.26484843103	0
7	4517	770.036299751588	0
7	4524	771.238416940024	0
7	4527	771.32701528242	0
7	4532	772.573201031175	0
7	4537	773.107621832059	0
7	4542	773.658351593859	0
7	4549	775.075701099411	0
7	4552	775.164299441807	0
7	4557	775.59659413157	0
7	4562	776.665617132205	0
7	4568	778.991489701086	0
7	4573	781.139563598516	0
7	4578	781.833113384012	0
7	4583	783.186003304641	0
7	4588	783.305143184718	0
7	4593	783.443268578768	0
7	4598	783.582695168085	0
7	4603	784.222504831976	0
7	4608	786.701412476487	0
7	4613	787.568895982686	0
7	4618	787.971381765224	0
7	4623	788.48656992799	0
7	4628	788.710829703602	0
7	4633	789.300842136157	0
7	4638	789.525195189985	0
7	4643	789.87811412584	0
7	4648	790.097976040158	0
7	4653	790.628528080419	0
7	4658	793.08636665682	0
7	4663	793.685740494339	0
7	4668	794.800613699996	0
7	4673	795.676686470005	0
7	4678	795.961149735306	0
7	4683	797.006235301301	0
7	4688	797.631373136343	0
7	4693	798.549403032813	0
7	4698	798.897426987852	0
7	4703	800.296267374814	0
7	4708	800.898108898166	0
7	4713	801.603541687997	0
7	4718	802.310829041971	0
7	4723	803.154770476467	0
7	4728	804.025802692816	0
7	4735	805.119203618055	0
7	4738	805.207801960451	0
7	4745	806.866321417456	0
7	4748	806.954919759852	0
7	4753	807.52487982262	0
7	4758	808.223807923958	0
7	4763	808.388414398271	0
7	4768	808.60248339305	0
7	4773	809.151403443143	0
7	4778	810.047315089114	0
7	4783	810.976525500715	0
7	4788	811.713323192123	0
7	4793	811.995442568655	0
7	4798	812.770166754219	0
7	4803	814.600508081102	0
7	4810	815.002867056378	0
7	4813	815.091465398774	0
7	4818	815.497729370971	0
7	4825	815.828180927709	0
7	4828	815.916779270105	0
7	4833	816.055198728345	0
7	4838	816.144884831048	0
7	4843	816.692412520956	0
7	4848	816.844604472773	0
7	4853	817.603424186794	0
7	4858	818.195715754049	0
7	4863	818.390130078856	0
7	4868	819.50555568249	0
7	4873	819.925008652261	0
7	4878	820.142411072143	0
7	4883	820.27994373278	0
7	4888	821.744616564034	0
7	4893	822.512127057587	0
7	4898	822.925695284561	0
7	4903	823.598786026907	0
7	4908	824.153351860847	0
7	4913	826.046255871275	0
7	4919	826.995250886434	0
7	4924	827.49701216669	0
7	4931	827.769605180574	0
7	4934	827.85820352297	0
7	4939	828.975673782316	0
7	4944	830.256584608959	0
7	4949	831.20120383904	0
7	4954	831.641998651802	0
7	4959	831.840191787955	0
7	4964	834.107900806783	0
7	4969	834.483321124196	0
7	4974	838.075316776884	0
7	4979	838.238828120899	0
7	4984	838.515079880076	0
7	4989	838.64549802209	0
7	4994	839.047433884687	0
7	4999	839.874084675696	0
7	5004	840.554268479953	0
7	5009	841.176416130015	0
7	5014	843.177436010911	0
7	5019	843.28645213985	0
7	5026	844.077199987001	0
7	5029	844.165798329397	0
7	5036	844.554438255023	0
7	5039	844.643036597419	0
7	5044	845.632513192484	0
7	5049	846.301320413672	0
7	5054	846.461728426051	0
7	5059	847.106768732011	0
7	5064	847.653335907231	0
7	5069	848.886516183032	0
7	5074	849.409997035745	0
7	5079	850.263390769581	0
7	5084	850.356911630458	0
7	5089	851.773134786613	0
7	5094	852.148259575775	0
7	5099	853.537201972778	0
7	5104	853.945416759055	0
7	5109	855.409320713717	0
7	5114	856.039682432959	0
7	5119	856.164753403122	0
7	5124	857.588377551866	0
7	5129	858.099831634485	0
7	5134	859.664874042673	0
7	5139	859.922237333554	0
7	5144	860.633688579902	0
7	5149	861.115288460594	0
7	5154	862.074186540239	0
7	5159	865.351572030694	0
7	5164	867.346595218677	0
7	5169	867.964423053043	0
7	5176	868.47287783353	0
7	5179	868.561476175926	0
7	5184	869.469659847862	0
7	5189	869.934067803142	0
7	5194	870.494201233099	0
7	5199	870.647155778134	0
7	5204	871.760490751706	0
7	5209	872.637737063646	0
7	5214	874.031615471035	0
7	5219	875.317782195902	0
7	5224	875.696823470263	0
7	5229	876.051404992413	0
7	5234	876.226389732814	0
7	5239	876.425237379139	0
7	5244	877.215381643874	0
7	5249	878.021843609304	0
7	5254	879.268747088868	0
7	5259	879.587321925698	0
7	5264	880.171926482649	0
7	5272	880.418100562827	0
7	5275	880.506698905223	0
7	5280	880.972477237871	0
7	5285	881.346142588993	0
7	5290	881.717610564351	0
7	5295	882.279357887498	0
7	5300	882.457711219705	0
7	5305	883.08458342927	0
7	5310	883.206064682831	0
7	5315	884.253854359702	0
7	5320	884.7768114985	0
7	5325	884.882480714283	0
7	5332	885.795352670946	0
7	5335	885.883951013342	0
7	5340	886.035319996093	0
7	5345	886.239605177088	0
7	5350	886.984358804849	0
7	5355	887.459608652328	0
7	5360	890.955296376983	0
7	5365	891.174837587288	0
7	5370	891.322221735071	0
7	5375	892.893982643045	0
7	5380	894.20652775383	0
7	5385	894.394882981188	0
7	5390	894.519448433577	0
7	5395	895.299428835352	0
7	5400	895.616429464769	0
7	5405	897.519697689056	0
7	5410	897.970535371763	0
7	5415	900.362256520255	0
7	5422	900.577596380673	0
7	5425	900.666194723069	0
7	5432	902.469672604804	0
7	5435	902.5582709472	0
7	5440	902.694067903474	0
7	5445	903.354899387993	0
7	5450	905.533589559872	0
7	5455	906.653633430809	0
7	5460	908.372671224648	0
7	5465	910.2420063072	0
7	5470	910.785206419452	0
7	5475	911.079579079288	0
7	5480	913.268564905374	0
7	5485	914.217121297225	0
7	5492	914.448398984782	0
7	5495	914.536997327178	0
7	5500	915.05587624569	0
7	5505	915.57875599032	0
7	5510	917.221105634693	0
7	5515	917.398714572923	0
7	5520	917.80687501349	0
7	5525	918.179997611225	0
7	5530	919.64571334602	0
7	5537	919.921705559759	0
7	5540	920.010303902155	0
7	5545	921.295140761646	0
7	5552	922.563242784692	0
7	5555	922.651841127088	0
7	5560	923.325199564572	0
7	5565	924.721179391228	0
7	5570	925.279384019153	0
7	5575	927.193321556592	0
7	5580	927.647052533047	0
7	5585	928.154688589348	0
7	5592	928.292954620777	0
7	5597	928.381552963173	0
7	5600	928.470151305569	0
7	5605	929.972696161292	0
7	5610	930.467456761959	0
7	5615	930.876993434294	0
7	5621	931.930924502075	0
7	5628	932.414213539959	0
7	5631	932.502811882355	0
7	5636	933.178482361231	0
7	5641	933.612498495041	0
7	5646	934.04341316019	0
7	5651	935.696483286341	0
7	5656	936.693524830699	0
7	5661	937.394932675698	0
7	5666	938.29480684319	0
7	5673	938.454320759893	0
7	5676	938.542919102289	0
7	5681	938.971429290681	0
7	5686	939.806654686618	0
7	5691	940.745631559252	0
7	5696	940.960359340199	0
7	5703	941.620032334064	0
7	5706	941.70863067646	0
7	5711	943.177255642252	0
7	5716	943.284625422129	0
7	5721	943.558307643082	0
7	5726	944.627151514285	0
7	5731	944.72450147822	0
7	5736	945.518776093447	0
7	5741	945.779838341697	0
7	5746	947.048723746091	0
7	5751	947.633881439863	0
7	5758	948.504119866965	0
7	5761	948.592718209361	0
7	5766	949.056450564583	0
7	5771	950.738671880704	0
7	5776	953.660998078429	0
7	5781	955.184875521321	0
7	5786	956.241413202931	0
7	5791	956.531604510049	0
7	5796	957.256250258213	0
7	5801	958.194849464353	0
7	5808	961.367575261669	0
7	5811	961.456173604065	0
7	5816	962.260644671953	0
7	5821	964.664120433701	0
7	5826	966.685000176453	0
7	5831	967.928817571484	0
7	5836	969.199852092678	0
7	5841	969.394900456084	0
7	5846	969.937887822972	0
7	5851	970.381336743396	0
7	5856	971.546518412739	0
7	5861	972.774416347403	0
7	5866	972.885632932018	0
7	5871	973.805146833317	0
7	5878	974.351023730719	0
7	5881	974.439622073115	0
7	5886	975.639904878787	0
7	5891	976.34605472327	0
7	5896	977.189104063562	0
7	5901	977.956556610117	0
7	5908	978.229212454029	0
7	5911	978.317810796425	0
7	5916	979.288320042139	0
7	5921	979.519807994362	0
7	5926	980.05395898008	0
7	5931	981.951164165771	0
7	5936	983.183731017691	0
7	5941	983.781063405712	0
7	5946	983.94295898884	0
7	5951	984.677577669711	0
7	5956	985.777454105478	0
7	5961	986.005065202054	0
7	5966	986.218452166419	0
7	5972	986.449769076654	0
7	5977	986.986024511627	0
7	5982	987.489640691104	0
7	5987	988.029196743053	0
7	5992	989.527882148192	0
7	5997	990.642566393775	0
7	6002	992.131818857596	0
7	6007	992.790233368556	0
7	6014	992.963681118664	0
7	6019	993.05227946106	0
7	6022	993.140877803456	0
7	6027	993.591401880817	0
7	6032	994.370725863266	0
7	6037	994.770233345751	0
7	6042	995.002535809634	0
7	6047	995.472110121529	0
7	6052	995.664473276437	0
7	6057	996.015691255601	0
7	6062	998.153451139054	0
7	6067	999.502846738275	0
7	6072	999.863169119881	0
8	61	7.016004882508	0.029779723012
8	86	13.411730384421	0.085089393834
8	101	14.191311453008	0.083749875585
8	151	21.573158405591	0.038735679203
8	161	21.977195496346	0.025974753133
8	306	47.517877239588	0.01709326196
8	336	52.528380386809	0.076047645774
8	353	54.251029284515	0.1309864732
8	447	70.170910390667	0.023307490097
8	477	73.093789571248	0.007386871847
8	542	80.921045299075	0.058942935501
8	557	82.470820392948	0.002921144954
8	562	82.559418735344	0.057143682404
8	582	84.038673391195	0.07849536095
8	602	88.606420139355	0.08254892955
8	607	88.695018481751	0.03597953499
8	622	91.579821350487	0.031206703317
8	699	103.554230290685	0.050216820768
8	704	103.78554720092	0.276590564588
8	713	106.518930816666	0.064213080884
8	810	121.129517867783	0.02571548496
8	813	121.218116210179	0.10745198732
8	863	132.838008373466	0.06456141233
8	893	135.229408304118	0.055247530738
8	933	140.994786196943	0.004711161589
8	1008	153.326121898317	0.014762018469
8	1028	155.266430047623	0.01361959705
8	1061	159.765625337909	0.075955085688
8	1064	159.854223680305	0.12276822622
8	1089	166.248628651445	0.021521883349
8	1101	166.794635083335	0.086987026735
8	1104	166.883233425731	0.127802892596
8	1164	178.449169558977	0.061561169193
8	1189	184.72920587076	0.080310226766
8	1279	200.935164172089	0.020748233767
8	1329	212.20755236116	0.061440129449
8	1359	215.333108147948	0.022836237886
8	1435	234.174921569436	0.035686839077
8	1455	240.139358325951	0.027299457721
8	1460	240.227956668347	0.038954579272
8	1475	241.584245415838	0.012591004161
8	1495	243.453248198337	0.069596286439
8	1600	260.088749932151	0.052454735366
8	1645	267.292031334888	0.076368166327
8	1745	286.585289843645	0.071112693296
8	1759	287.077083419486	0.215114222143
8	1763	287.165681761882	0.234576418082
8	1766	287.254280104278	0.116555666832
8	1806	293.477916083137	0.056644476833
8	1926	316.383231392823	0.021834696631
8	2071	341.492970513327	0.01810252151
8	2076	341.581568855723	0.066866585446
8	2101	344.617867014112	0.032638765217
8	2112	347.424707149424	0.032040560121
8	2117	347.51330549182	0.070950028305
8	2167	358.707579117553	0.028524502937
8	2297	390.397671419152	0.035548184701
8	2312	391.889491977065	0.068808893529
8	2322	400.111364622652	0.020178661899
8	2437	420.577973441154	0.071560389246
8	2447	421.078063050138	0.016968494519
8	2593	447.423060320654	0.013053502226
8	2603	447.844647130944	0.035404700897
8	2653	454.494340698026	0.024950152309
8	2753	468.518291431845	0.050209083374
8	2778	474.850576659775	0.019506209616
8	2798	479.012978316848	0.077074921897
8	2810	480.775290503265	0.029593243935
8	2859	492.507393510836	0.067740336367
8	2884	495.274044430773	0.042280857724
8	2909	499.949182520401	0.009951060858
8	2939	501.524100768503	0.023043467503
8	3074	525.638136465399	0.048046155498
8	3084	527.118944884422	0.070366819778
8	3114	533.14097756984	0.081746901779
8	3149	536.376071086938	0.008834729406
8	3170	539.274419538352	0.063353438413
8	3185	541.071681119018	0.083792682327
8	3240	550.375062229864	0.085924860619
8	3320	566.282897609695	0.046922952306
8	3365	571.798804353251	0.037883196362
8	3370	571.887402695647	0.014672622292
8	3410	580.374532139847	0.019131356827
8	3445	585.423358726089	0.015720583378
8	3502	596.072960670876	0.038525943599
8	3505	596.161559013272	0.096677485067
8	3616	609.77159842225	0.03667122097
8	3636	611.71400306534	0.004305759639
8	3696	618.431607746977	0.00418800883
8	3711	619.104611840413	0.01577104373
8	3791	637.456055428606	0.060767114546
8	3806	638.74894143152	0.06578485084
8	3846	642.446754370345	0.002171370438
8	3917	655.213995185829	0.075461397414
8	3932	655.83878942382	0.045371265648
8	3952	658.288713624469	0.085146697117
8	4022	672.6310169529	0.065294919939
8	4047	674.71957977319	0.015990644714
8	4057	675.515207883569	0.073873623132
8	4192	704.43088165685	0.040217781967
8	4233	709.602752083019	0.084948130692
8	4313	729.524125702567	0.025186119129
8	4333	735.415697987311	0.087282003018
8	4453	761.633503405458	0.000532450498
8	4473	765.297943616367	0.046780531938
8	4483	765.959095679952	0.055819407403
8	4488	766.047694022348	0.034433648235
8	4498	766.584457587317	0.047463059579
8	4523	771.238416940024	0.055326182986
8	4548	775.075701099411	0.038894886221
8	4734	805.119203618055	0.083033262689
8	4744	806.866321417456	0.085876531374
8	4809	815.002867056378	0.034009798505
8	4824	815.828180927709	0.017940151763
8	4930	827.769605180574	0.043287751461
8	5025	844.077199987001	0.059326707505
8	5035	844.554438255023	0.082314332614
8	5175	868.47287783353	0.014604846509
8	5271	880.418100562827	0.016715385202
8	5331	885.795352670946	0.053037032704
8	5421	900.577596380673	0.054618971599
8	5431	902.469672604804	0.060772281969
8	5491	914.448398984782	0.01589340703
8	5536	919.921705559759	0.08743726217
8	5551	922.563242784692	0.079872728494
8	5591	928.292954620777	0.011216799187
8	5596	928.381552963173	0.061690714834
8	5627	932.414213539959	0.058038194867
8	5672	938.454320759893	0.042416492307
8	5702	941.620032334064	0.027769339704
8	5757	948.504119866965	0.058052322297
8	5807	961.367575261669	0.035571496625
8	5877	974.351023730719	0.084585117839
8	5907	978.229212454029	0.039231095574
8	5969	986.361170734258	0.002225928653
8	6013	992.963681118664	0.041275412347
8	6018	993.05227946106	0.040073645141

