version 2
run General-338-20240201-11:04:28-40057
attr configname General
attr datetime 20240201-11:04:28
attr experiment General
attr inifile main.ini
attr iterationvars "$0=1.2, $1=3.5, $2=50"
attr iterationvarsf 1.2,3.5,50-
attr measurement "$0=1.2, $1=3.5, $2=50"
attr network Rete
attr processid 40057
attr repetition 18
attr replication #18
attr resultdir results
attr runnumber 338
attr seedset 338
param Rete.lambda 1.2
param Rete.a 0.3s
param Rete.b 3.5s
param Rete.c 0.1s
param Rete.d 0.3s
param Rete.mu 3.0
param Rete.source2.interArrivalTime exponential(1s/lambda)
param Rete.source2.jobServiceTime exponential(1s/mu)
param Rete.source2.deadline uniform(a,b)
param Rete.server2.j 50
param Rete.server2.V uniform(c,d)

vector 0 Rete.passiveQueue queueLength:vector ETV
attr interpolationmode sample-hold
attr title "queue length, vector"
vector 1 Rete.sink lifeTime:vector ETV
attr interpolationmode none
attr title "lifetime of arrived jobs, vector"
attr unit s
vector 2 Rete.sink totalQueueingTime:vector ETV
attr interpolationmode none
attr title "the total time spent in queues by arrived jobs, vector"
attr unit s
vector 3 Rete.sink queuesVisited:vector ETV
attr interpolationmode none
attr title "the total number of queues visited by arrived jobs, vector"
vector 4 Rete.sink totalServiceTime:vector ETV
attr interpolationmode none
attr title "the total time spent  by arrived jobs, vector"
attr unit s
vector 5 Rete.sink totalDelayTime:vector ETV
attr interpolationmode none
attr title "the total time spent in delay nodes by arrived jobs, vector"
attr unit s
vector 6 Rete.sink delaysVisited:vector ETV
attr interpolationmode none
attr title "the total number of delays visited by arrived jobs, vector"
vector 7 Rete.sink generation:vector ETV
attr interpolationmode none
attr title "the generation of the arrived jobs, vector"
vector 8 Rete.passiveQueue queueingTime:vector ETV
attr interpolationmode none
attr title "queueing time at dequeue, vector"
attr unit s
0	0	0	0
0	30	4.481418754301	1
0	31	4.494545543755	0
0	35	4.601588323661	1
0	36	4.770055447606	0
0	40	4.796556875982	1
0	42	4.880003724509	2
0	43	5.045565351457	1
0	47	5.167270909111	2
0	48	5.321075255308	1
0	51	5.596585159159	0
0	55	5.71023531908	1
0	56	5.87209506301	0
0	115	22.005748328795	1
0	116	22.108638970093	0
0	120	22.133053948481	1
0	121	22.384148873944	0
0	130	23.13151674197	1
0	131	23.381951023737	0
0	140	23.981724074851	1
0	141	24.011786777244	0
0	145	24.26192319304	1
0	146	24.287296681095	0
0	150	24.309901543385	1
0	151	24.562806584946	0
0	155	24.631630873152	1
0	156	24.838316488797	0
0	185	35.157993310355	1
0	187	35.345074345786	2
0	188	35.376559500105	1
0	191	35.652069403956	0
0	205	40.059697056922	1
0	206	40.250758330241	0
0	210	40.476621098718	1
0	211	40.526268234092	0
0	225	41.418829861535	1
0	226	41.653112102952	0
0	245	45.405543963629	1
0	247	45.573577749449	2
0	248	45.598123032346	1
0	252	45.798104648674	2
0	255	46.145321106136	1
0	257	46.420831009987	0
0	271	48.47378940511	1
0	273	48.567565523836	2
0	274	48.625603263431	1
0	277	48.901113167282	0
0	301	54.402216758252	1
0	302	54.675025472164	0
0	341	61.114422442681	1
0	342	61.135974700486	0
0	356	63.82908573895	1
0	357	63.985231279797	0
0	371	68.004958734368	1
0	372	68.092091527956	0
0	411	74.343900943258	1
0	412	74.613945565382	0
0	416	74.687336479857	1
0	417	74.889455469233	0
0	431	81.918526401516	1
0	432	81.946972159049	0
0	451	84.86348554681	1
0	452	84.98589819368	0
0	461	86.520689550938	1
0	462	86.557126869993	0
0	471	88.414356243142	1
0	472	88.586690092777	0
0	496	94.237501951457	1
0	497	94.424885897463	0
0	501	94.596646731995	1
0	505	94.764136895593	2
0	506	94.972083971253	1
0	508	95.247593875104	0
0	512	95.508533559507	1
0	513	95.523103778955	0
0	527	98.066961554643	1
0	529	98.203828234133	2
0	530	98.239883556275	1
0	533	98.515393460126	0
0	537	98.522617041226	1
0	539	98.758536968243	2
0	540	98.790903363977	1
0	543	99.066413267828	0
0	547	99.30287784982	1
0	548	99.341923171679	0
0	552	99.489061817703	1
0	553	99.61743307553	0
0	627	109.515446144053	1
0	629	109.62874720619	2
0	630	109.729930253397	1
0	633	110.005440157248	0
0	687	124.090792144974	1
0	688	124.110369268241	0
0	712	127.330032500577	1
0	713	127.513308030806	0
0	742	131.738882295486	1
0	743	131.911433499999	0
0	754	134.515017721142	1
0	755	134.598867913005	0
0	758	134.657005662218	1
0	759	134.874377816856	0
0	763	134.919433948132	1
0	765	135.128533850019	2
0	766	135.149887720707	1
0	769	135.425397624558	0
0	798	138.941197839223	1
0	799	139.065645981824	0
0	803	139.285092017363	1
0	804	139.341155885675	0
0	808	139.361984973033	1
0	809	139.616665789526	0
0	838	146.227416991319	1
0	839	146.252268163003	0
0	863	149.972809377713	1
0	864	150.236178472114	0
0	873	150.978770770063	1
0	874	151.02473444822	0
0	883	151.423156226655	1
0	884	151.625347917079	0
0	928	160.407703290509	1
0	930	160.417453261561	2
0	932	160.437964890338	3
0	934	160.553752487319	4
0	935	160.636052586215	3
0	938	160.911562490066	2
0	941	161.187072393917	1
0	943	161.187072393917	0
0	951	162.630799086427	1
0	952	162.74470171351	0
0	956	162.842397547963	1
0	957	163.020211617361	0
0	971	166.414808957769	1
0	972	166.499068544104	0
0	976	166.592859240887	1
0	978	166.636406872219	2
0	979	166.774578447955	1
0	982	167.050088351806	0
0	986	167.155821435943	1
0	987	167.325598255657	0
0	991	167.508041689464	1
0	992	167.601108159508	0
0	1001	168.581939884527	1
0	1002	168.686273756546	0
0	1006	168.835513559906	1
0	1010	169.082181054423	2
0	1011	169.233471830336	1
0	1013	169.508981734187	0
0	1027	172.608817072002	1
0	1028	172.718280703707	0
0	1037	173.815036872234	1
0	1038	173.989918001934	0
0	1077	184.570342798341	1
0	1078	184.696310065532	0
0	1097	191.7135202955	1
0	1098	191.854145361171	0
0	1147	201.15787125995	1
0	1149	201.250677413947	2
0	1150	201.397570073508	1
0	1153	201.673079977359	0
0	1162	202.614873964446	1
0	1163	202.731550807963	0
0	1172	203.167479990113	1
0	1173	203.375276150165	0
0	1192	206.563447371503	1
0	1193	206.685268023997	0
0	1197	206.950146289186	1
0	1198	206.960777927848	0
0	1202	206.987490154559	1
0	1203	207.236287831699	0
0	1222	210.044345136135	1
0	1223	210.062666708557	0
0	1232	210.787191757721	1
0	1233	210.914946500618	0
0	1247	213.574304751693	1
0	1248	213.688118593077	0
0	1252	213.783232748242	1
0	1253	213.963628496928	0
0	1259	214.466152540928	1
0	1260	214.510826570718	0
0	1273	217.448706601008	1
0	1274	217.686554215183	0
0	1278	217.80466041292	1
0	1280	217.839864609998	2
0	1282	217.86014047206	3
0	1283	217.962064119034	2
0	1286	218.237574022885	1
0	1290	218.483771934515	2
0	1291	218.513083926736	1
0	1294	218.788593830587	0
0	1318	225.79173450733	1
0	1320	225.849676636231	2
0	1321	225.900255131963	1
0	1324	226.175765035814	0
0	1358	232.065733382645	1
0	1359	232.225506908496	0
0	1363	232.300132757856	1
0	1364	232.501016812347	0
0	1368	232.738161684415	1
0	1369	232.776526716198	0
0	1373	232.796695608166	1
0	1375	232.835114796909	2
0	1377	233.036103164082	3
0	1378	233.052036620049	2
0	1381	233.3275465239	1
0	1384	233.603056427751	0
0	1388	233.827832752417	1
0	1389	233.878566331602	0
0	1398	236.355690610397	1
0	1399	236.564174743759	0
0	1428	244.900231595285	1
0	1429	245.120344459168	0
0	1433	245.231000410741	1
0	1434	245.395854363019	0
0	1453	250.631543985071	1
0	1455	250.835853481556	2
0	1456	250.874726361576	1
0	1460	250.956478673274	2
0	1461	251.150236265427	1
0	1465	251.229676927716	2
0	1467	251.356392130722	3
0	1468	251.425746169278	2
0	1472	251.50769014536	3
0	1473	251.701256073129	2
0	1476	251.97676597698	1
0	1480	252.056778426496	2
0	1481	252.252275880831	1
0	1483	252.252275880831	0
0	1496	253.225059910833	1
0	1497	253.357307697886	0
0	1506	255.275454470604	1
0	1507	255.453911433537	0
0	1511	255.640054043112	1
0	1514	256.001109507327	0
0	1517	256.177431850074	1
0	1518	256.276619411178	0
0	1522	256.535907033945	1
0	1523	256.552129315029	0
0	1527	256.618871962905	1
0	1528	256.82763921888	0
0	1537	258.708692677923	1
0	1539	258.79874983085	2
0	1540	258.824099782172	1
0	1543	259.099609686023	0
0	1547	259.161262691338	1
0	1548	259.375119589874	0
0	1587	269.099991343877	1
0	1589	269.126261895028	2
0	1590	269.331847978877	1
0	1593	269.607357882728	0
0	1597	269.770958851609	1
0	1599	269.857785764254	2
0	1600	269.882867786579	1
0	1604	269.919782548406	2
0	1606	270.130311646635	3
0	1607	270.15837769043	2
0	1610	270.433887594281	1
0	1613	270.709397498132	0
0	1622	271.549032638709	1
0	1623	271.823087327995	0
0	1632	275.666176645357	1
0	1633	275.851873581229	0
0	1662	283.122075361933	1
0	1663	283.124945696523	0
0	1722	295.676702148662	1
0	1723	295.778576982485	0
0	1757	300.525296165871	1
0	1758	300.632703080557	0
0	1773	302.159330522814	1
0	1774	302.432748492516	0
0	1778	302.665580252913	1
0	1779	302.708258396367	0
0	1808	305.274461283335	1
0	1809	305.485442538528	0
0	1823	307.276036124431	1
0	1824	307.327812447558	0
0	1848	309.799517172325	1
0	1849	309.822290684854	0
0	1853	309.899757083497	1
0	1854	310.097800588705	0
0	1873	313.346391986559	1
0	1874	313.531807041594	0
0	1903	318.910667147682	1
0	1904	319.047324303864	0
0	1908	319.178064912075	1
0	1909	319.322834207715	0
0	1913	319.38527950321	1
0	1914	319.598344111566	0
0	1938	326.886911824165	1
0	1939	327.073661135722	0
0	1988	335.956078140858	1
0	1989	336.034166197345	0
0	1998	336.431111887974	1
0	1999	336.688395751073	0
0	2019	338.636198413179	1
0	2020	338.902857856624	0
0	2034	339.797128335537	1
0	2035	339.995855266128	0
0	2044	340.974676926133	1
0	2046	341.017178281061	2
0	2047	341.030426622838	1
0	2050	341.305936526689	0
0	2059	341.702137588	1
0	2060	341.881813481156	0
0	2074	344.959964189077	1
0	2075	345.154187717818	0
0	2084	345.656906750185	1
0	2085	345.851790783428	0
0	2089	346.075179758674	1
0	2090	346.127300687279	0
0	2109	352.35668319134	1
0	2110	352.479624161937	0
0	2139	356.561186149544	1
0	2140	356.733030089635	0
0	2154	357.670028457347	1
0	2155	357.789185668645	0
0	2174	363.055794767907	1
0	2175	363.085885583962	0
0	2179	363.242488563683	1
0	2180	363.361395487813	0
0	2189	365.735150348233	1
0	2190	365.947741795795	0
0	2199	366.328781709894	1
0	2200	366.59819005063	0
0	2209	367.910474051523	1
0	2210	367.949227206551	0
0	2224	369.490750667273	1
0	2225	369.652841525523	0
0	2229	369.806356579146	1
0	2230	369.928351429374	0
0	2264	375.125743213817	1
0	2268	375.147590364602	2
0	2269	375.399626614256	1
0	2272	375.640480845585	2
0	2273	375.675136518107	1
0	2277	375.887086415115	2
0	2278	375.950646421958	1
0	2281	376.226156325809	0
0	2285	376.272579982662	1
0	2286	376.50166622966	0
0	2330	383.36068150517	1
0	2331	383.48822829717	0
0	2365	392.616887173741	1
0	2366	392.720538068307	0
0	2375	393.85543475891	1
0	2376	393.95687206354	0
0	2420	401.308350846385	1
0	2421	401.577673907906	0
0	2460	409.443776325994	1
0	2461	409.712039831844	0
0	2470	410.405914361878	1
0	2471	410.534160357938	0
0	2475	410.639681835746	1
0	2477	410.781510524413	2
0	2478	410.809670261789	1
0	2481	411.08518016564	0
0	2505	415.865368795131	1
0	2506	416.138333450862	0
0	2510	416.141743610856	1
0	2511	416.413843354713	0
0	2521	418.132787954651	1
0	2522	418.374036501942	0
0	2531	420.185916506647	1
0	2532	420.382247296331	0
0	2536	420.389589414129	1
0	2538	420.432901785152	2
0	2540	420.492476002001	3
0	2541	420.657757200182	2
0	2544	420.933267104033	1
0	2548	420.965190098988	2
0	2549	421.208777007884	1
0	2551	421.208777007884	0
0	2569	422.993124185092	1
0	2570	423.174256618933	0
0	2579	423.489004612939	1
0	2580	423.738031796233	0
0	2584	423.851521260391	1
0	2586	423.887336151858	2
0	2587	424.013541700084	1
0	2590	424.289051603935	0
0	2639	438.365094284688	1
0	2640	438.376406991371	0
0	2644	438.53466037033	1
0	2646	438.60364518011	2
0	2647	438.651916895222	1
0	2650	438.927426799073	0
0	2659	441.538788135594	1
0	2660	441.776470116673	0
0	2664	441.958390848537	1
0	2665	442.051980020524	0
0	2694	448.152404109968	1
0	2695	448.354648704705	0
0	2699	448.427752643364	1
0	2700	448.630158608556	0
0	2709	449.940791449145	1
0	2710	450.06634263902	0
0	2739	457.911387340932	1
0	2740	458.102337304447	0
0	2749	458.716493221617	1
0	2750	458.770292836295	0
0	2785	466.251653955125	1
0	2786	466.39836957192	0
0	2795	467.19346378414	1
0	2796	467.262119927756	0
0	2800	467.327920421988	1
0	2802	467.469903259939	2
0	2803	467.537629831607	1
0	2807	467.594612900738	2
0	2808	467.813139735458	1
0	2811	468.088649639309	0
0	2820	468.624383806801	1
0	2821	468.749219308656	0
0	2825	468.864013060646	1
0	2826	469.024729212507	0
0	2830	469.263031656982	1
0	2832	469.298819215703	2
0	2833	469.300239116358	1
0	2836	469.575749020209	0
0	2845	470.678900416592	1
0	2846	470.870426327262	0
0	2850	470.9814863349	1
0	2851	471.145936231113	0
0	2855	471.165754537967	1
0	2856	471.421446134964	0
0	2870	473.69166483457	1
0	2871	473.826268461418	0
0	2915	486.595609703975	1
0	2916	486.76302043334	0
0	2935	489.812771481513	1
0	2936	490.073641786206	0
0	2940	490.292696663772	1
0	2941	490.349151690057	0
0	2960	495.059207978355	1
0	2961	495.259773758049	0
0	2970	495.992641104991	1
0	2971	496.013152364785	0
0	3015	503.751987022024	1
0	3016	503.803156847746	0
0	3026	505.083654270254	1
0	3027	505.278112316585	0
0	3036	507.996111770124	1
0	3037	508.181912955757	0
0	3051	510.898547465703	1
0	3052	510.976380954918	0
0	3056	511.027930859057	1
0	3057	511.251890858769	0
0	3066	515.216137630705	1
0	3067	515.30489541565	0
0	3071	515.491175370806	1
0	3072	515.580405319501	0
0	3081	516.797995649934	1
0	3082	516.813965698977	0
0	3086	517.063848807001	1
0	3087	517.089475602828	0
0	3116	525.427095462138	1
0	3117	525.670723522233	0
0	3126	526.105094463209	1
0	3127	526.27381374648	0
0	3156	532.888840634945	1
0	3158	533.024426332247	2
0	3159	533.042935706732	1
0	3162	533.318445610583	0
0	3181	535.300489917618	1
0	3182	535.436763944813	0
0	3206	541.459536943698	1
0	3207	541.464721408233	0
0	3216	542.233358732961	1
0	3217	542.320107255695	0
0	3246	544.525352212512	1
0	3247	544.676466204059	0
0	3251	544.841258839924	1
0	3252	544.95197610791	0
0	3282	550.397782006809	1
0	3283	550.398643421254	0
0	3327	555.677038891558	1
0	3329	555.691213220216	2
0	3330	555.890532432358	1
0	3333	556.166042336209	0
0	3382	564.636575747575	1
0	3383	564.855343353657	0
0	3387	564.888178170197	1
0	3388	565.130853257508	0
0	3397	566.255598914456	1
0	3399	566.327219615026	2
0	3400	566.447048873836	1
0	3403	566.722558777687	0
0	3407	566.829310332256	1
0	3408	566.998068681538	0
0	3427	570.354435372746	1
0	3428	570.473703815948	0
0	3472	579.59783420084	1
0	3474	579.67634024061	2
0	3476	579.761947768222	3
0	3477	579.773301144433	2
0	3480	580.048811048284	1
0	3483	580.324320952135	0
0	3487	580.37396576981	1
0	3488	580.599830855986	0
0	3507	584.883142481402	1
0	3508	584.93150591193	0
0	3517	585.293572540844	1
0	3518	585.539017802782	0
0	3522	585.573258589465	1
0	3525	586.086215876572	0
0	3533	587.156988702873	1
0	3534	587.361337815685	0
0	3538	587.466489835464	1
0	3539	587.636847719536	0
0	3553	589.24348707055	1
0	3554	589.336404707939	0
0	3563	590.04752017264	1
0	3564	590.134179652018	0
0	3573	590.873139097084	1
0	3574	590.954169960884	0
0	3603	594.776589733171	1
0	3604	594.781096034901	0
0	3623	597.397419875508	1
0	3624	597.445513794487	0
0	3628	597.677983000825	1
0	3629	597.721023698338	0
0	3643	599.105864439593	1
0	3644	599.369664962751	0
0	3648	599.481165008376	1
0	3650	599.490331129119	2
0	3651	599.645174866602	1
0	3655	599.869612598355	2
0	3656	599.920684770453	1
0	3659	600.196194674304	0
0	3663	600.424206368695	1
0	3664	600.471704578155	0
0	3668	600.744344036702	1
0	3669	600.747214482006	0
0	3708	608.343016740528	1
0	3709	608.448061320102	0
0	3723	609.573180067172	1
0	3724	609.822192196492	0
0	3728	609.955846712004	1
0	3729	610.097702100343	0
0	3748	611.954594909024	1
0	3749	612.074989597754	0
0	3758	613.205077694357	1
0	3759	613.475753892214	0
0	3768	614.036078890067	1
0	3769	614.077782611397	0
0	3794	619.39719018045	1
0	3795	619.407929663865	0
0	3804	620.934974923159	1
0	3805	621.166343790765	0
0	3809	621.332700335725	1
0	3810	621.441853694616	0
0	3819	621.86960625221	1
0	3821	622.031664936754	2
0	3822	622.101131376042	1
0	3825	622.376641279893	0
0	3829	622.618313496393	1
0	3830	622.652151183744	0
0	3869	635.748989925985	1
0	3870	636.004688048704	0
0	3894	643.152939446871	1
0	3895	643.154113252782	0
0	3914	648.910386552795	1
0	3915	648.931562641448	0
0	3939	653.363303103662	1
0	3940	653.622206351005	0
0	3969	658.453291678387	1
0	3970	658.522170662814	0
0	3974	658.586895766524	1
0	3975	658.797680566665	0
0	3989	659.976591502426	1
0	3991	659.993110164312	2
0	3992	660.098107173954	1
0	3995	660.373617077805	0
0	3999	660.547413583744	1
0	4000	660.649126981656	0
0	4019	666.3758067077	1
0	4020	666.382582332389	0
0	4030	667.828187534174	1
0	4031	668.100626817371	0
0	4060	674.447757686619	1
0	4061	674.572687241999	0
0	4065	674.678404898567	1
0	4066	674.84819714585	0
0	4100	682.541977915534	1
0	4101	682.555198439179	0
0	4105	682.592429392502	1
0	4106	682.83070834303	0
0	4125	683.878961930792	1
0	4126	684.134450707886	0
0	4135	686.699338420351	1
0	4136	686.711516950309	0
0	4145	687.943952795208	1
0	4146	688.048539244069	0
0	4155	688.824834308383	1
0	4156	689.057102206757	0
0	4185	695.008741235648	1
0	4186	695.077559166408	0
0	4190	695.084667260437	1
0	4191	695.353069070259	0
0	4200	695.955674677973	1
0	4201	696.043333706012	0
0	4230	703.68198486735	1
0	4232	703.72103714606	2
0	4234	703.803486667886	3
0	4235	703.895527030056	2
0	4238	704.171036933907	1
0	4241	704.446546837758	0
0	4255	710.449488927608	1
0	4257	710.540796820848	2
0	4258	710.683800796346	1
0	4261	710.959310700197	0
0	4270	712.454513251149	1
0	4271	712.640943411859	0
0	4281	714.209948622151	1
0	4282	714.34754519238	0
0	4306	717.326169426023	1
0	4307	717.490055428105	0
0	4311	717.633855342577	1
0	4312	717.765565331956	0
0	4316	717.870542527815	1
0	4317	718.041075235807	0
0	4321	718.250550720676	1
0	4322	718.316585139658	0
0	4326	718.360422680095	1
0	4327	718.592095043509	0
0	4346	720.248880240131	1
0	4347	720.287389268081	0
0	4356	721.867994937304	1
0	4357	722.125154959801	0
0	4386	726.851908120403	1
0	4387	726.910955943107	0
0	4391	727.142959529137	1
0	4392	727.186465846958	0
0	4431	733.68582665422	1
0	4432	733.835773070241	0
0	4456	736.704953732317	1
0	4457	736.895413583787	0
0	4476	745.344849362153	1
0	4477	745.436628717623	0
0	4557	760.932657817204	1
0	4559	761.108537517797	2
0	4560	761.141178922987	1
0	4563	761.416688826838	0
0	4572	762.256608793236	1
0	4573	762.282295014155	0
0	4582	764.695513629083	1
0	4583	764.960372167187	0
0	4592	768.267581536612	1
0	4593	768.400361617003	0
0	4617	770.715661097325	1
0	4618	770.930767317964	0
0	4627	774.532832016039	1
0	4628	774.58352966438	0
0	4642	777.312319503275	1
0	4643	777.507524931943	0
0	4652	779.750910502427	1
0	4653	779.758901411543	0
0	4657	779.776733387929	1
0	4658	780.034411315394	0
0	4662	780.132522043139	1
0	4664	780.236790075799	2
0	4665	780.309921219245	1
0	4668	780.585431123096	0
0	4672	780.731129369369	1
0	4673	780.860941026947	0
0	4707	786.258304227467	1
0	4708	786.295402575068	0
0	4712	786.315385604194	1
0	4713	786.570912478919	0
0	4732	791.117593474545	1
0	4733	791.276089043077	0
0	4742	792.112991687872	1
0	4743	792.293440119167	0
0	4757	794.056913814333	1
0	4758	794.327622002821	0
0	4767	795.541041007547	1
0	4768	795.608840187845	0
0	4777	796.582665176571	1
0	4780	796.942106492686	0
0	4798	799.381264671546	1
0	4799	799.62731089398	0
0	4803	799.627797365413	1
0	4804	799.902820797831	0
0	4838	808.530296197998	1
0	4839	808.648506326679	0
0	4848	809.363679966195	1
0	4849	809.584994315167	0
0	4863	812.959794728671	1
0	4864	813.007047488577	0
0	4868	813.035627736435	1
0	4869	813.282557392428	0
0	4873	813.3294160213	1
0	4874	813.558067296279	0
0	4878	813.800079090622	1
0	4879	813.83357720013	0
0	4888	814.292135298094	1
0	4890	814.366567843355	2
0	4892	814.388582919166	3
0	4893	814.42674138715	2
0	4897	814.693270988795	3
0	4898	814.702251291001	2
0	4901	814.977761194852	1
0	4904	815.253271098703	0
0	4908	815.282520859681	1
0	4910	815.474352364908	2
0	4911	815.528781002554	1
0	4914	815.804290906405	0
0	4918	815.96744472688	1
0	4919	816.079800810256	0
0	4923	816.247874632081	1
0	4924	816.355310714107	0
0	4928	816.503744315319	1
0	4929	816.630820617958	0
0	4948	822.250159849072	1
0	4949	822.46381983336	0
0	4968	824.277415890365	1
0	4969	824.474321286163	0
0	4988	828.327787621809	1
0	4989	828.515719401576	0
0	4993	828.759421324682	1
0	4994	828.791229305427	0
0	4998	828.987973262644	1
0	4999	829.066739209278	0
0	5018	832.010542130514	1
0	5019	832.123300894631	0
0	5030	833.592702793356	1
0	5031	833.725885400311	0
0	5039	834.562404439843	1
0	5040	834.584895343435	0
0	5069	844.318512106097	1
0	5070	844.38451158863	0
0	5089	847.082788773375	1
0	5090	847.245646317343	0
0	5124	853.704185904442	1
0	5125	853.924790216147	0
0	5129	854.184375215754	1
0	5130	854.200300119998	0
0	5149	860.676048981505	1
0	5151	860.747111456587	2
0	5152	860.936156675986	1
0	5155	861.211666579837	0
0	5159	861.272735667042	1
0	5160	861.487176483688	0
0	5164	861.712907042427	1
0	5165	861.762686387539	0
0	5169	861.792885295956	1
0	5170	862.03819629139	0
0	5184	863.539088290306	1
0	5185	863.802297434276	0
0	5229	878.209111905556	1
0	5230	878.211852943536	0
0	5254	882.785855634755	1
0	5255	882.997605394534	0
0	5264	883.458037809277	1
0	5266	883.473235593423	2
0	5267	883.578023443163	1
0	5270	883.853533347014	0
0	5274	883.925116913002	1
0	5275	884.129043250865	0
0	5295	887.497568672954	1
0	5296	887.730725276048	0
0	5315	890.183745587659	1
0	5317	890.227762772611	2
0	5319	890.347920864731	3
0	5320	890.436887517449	2
0	5323	890.7123974213	1
0	5326	890.987907325151	0
0	5345	892.238642130782	1
0	5346	892.394593077372	0
0	5360	895.542996847035	1
0	5362	895.74062496012	2
0	5363	895.743231215561	1
0	5366	896.018741119412	0
0	5370	896.260850131864	1
0	5371	896.294251023263	0
0	5380	896.958191602258	1
0	5381	897.09630809547	0
0	5390	897.650586828816	1
0	5391	897.682686704503	0
0	5425	902.404065933754	1
0	5426	902.560607573212	0
0	5460	906.068179459668	1
0	5461	906.314623618283	0
0	5470	907.20437993301	1
0	5472	907.285216992616	2
0	5473	907.30205374232	1
0	5476	907.577563646171	0
0	5495	909.964802132266	1
0	5496	910.167131801391	0
0	5515	914.0277044811	1
0	5516	914.201359456102	0
0	5520	914.244192557979	1
0	5521	914.476869359953	0
0	5536	916.871827533301	1
0	5537	917.101708821236	0
0	5571	923.229670783377	1
0	5572	923.271925587889	0
0	5611	931.194147388726	1
0	5612	931.425244024747	0
0	5636	934.400032533336	1
0	5637	934.433746164226	0
0	5656	937.739637264033	1
0	5657	937.833656509969	0
0	5666	939.434076234259	1
0	5667	939.466993648113	0
0	5671	939.476456146928	1
0	5672	939.742503551964	0
0	5711	951.375189792806	1
0	5712	951.556500459504	0
0	5726	953.568606791313	1
0	5727	953.723253150778	0
0	5736	955.451470473798	1
0	5737	955.585364339856	0
0	5751	956.795001141176	1
0	5752	956.797863431731	0
0	5787	968.526085286959	1
0	5788	968.582365566973	0
0	5802	972.380411777532	1
0	5804	972.41393252969	2
0	5805	972.608898995919	1
0	5809	972.785481119653	2
0	5810	972.88440889977	1
0	5813	973.159918803621	0
0	5822	974.355102898604	1
0	5823	974.466049459527	0
0	5862	980.297325504703	1
0	5863	980.321342856025	0
0	5887	986.408970220676	1
0	5888	986.452133592675	0
0	5902	988.122277884516	1
0	5903	988.211800126797	0
0	5947	993.64882799605	1
0	5948	993.771068995133	0
0	5972	997.07785220824	1
0	5974	997.157621864788	2
0	5975	997.219022609663	1
0	5979	997.297206206352	2
0	5980	997.494532513514	1
0	5984	997.516818448407	2
0	5985	997.770042417365	1
0	5989	997.95873866239	2
0	5990	998.045552321216	1
0	5993	998.321062225067	0
1	5	0.379706709088	0.275509903851
1	10	0.984740285188	0.275509903851
1	15	2.440297408398	0.275509903851
1	20	2.946109560035	0.275509903851
1	25	3.555997977494	0.275509903851
1	32	4.494545543755	0.275509903851
1	37	4.770055447606	0.288636693305
1	44	5.045565351457	0.443977027796
1	49	5.321075255308	0.524518379326
1	52	5.596585159159	0.71658143465
1	57	5.87209506301	0.704824153899
1	60	6.147604966861	0.437369647781
1	65	9.503130826192	0.275509903851
1	70	11.707797828158	0.275509903851
1	75	13.47695502604	0.275509903851
1	80	14.023446348979	0.275509903851
1	85	14.751485445459	0.275509903851
1	90	15.150864750109	0.275509903851
1	95	16.805401090101	0.275509903851
1	100	17.634841449517	0.275509903851
1	105	18.255637123124	0.275509903851
1	110	19.288742522701	0.275509903851
1	117	22.108638970093	0.275509903851
1	122	22.384148873944	0.378400545149
1	125	22.659658777795	0.526604829314
1	132	23.381951023737	0.275509903851
1	135	23.657460927588	0.525944185618
1	142	24.011786777244	0.275509903851
1	147	24.287296681095	0.305572606244
1	152	24.562806584946	0.300883391906
1	157	24.838316488797	0.528414945412
1	160	25.113826392648	0.482195519496
1	165	26.258410926392	0.275509903851
1	170	29.599456240837	0.275509903851
1	175	33.426949630299	0.275509903851
1	180	33.989856788804	0.275509903851
1	189	35.376559500105	0.275509903851
1	192	35.652069403956	0.494076093601
1	195	35.927579307807	0.582504962021
1	200	37.269828453394	0.275509903851
1	207	40.250758330241	0.275509903851
1	212	40.526268234092	0.46657117717
1	215	40.801778137943	0.325157039225
1	220	41.115617981883	0.275509903851
1	227	41.653112102952	0.275509903851
1	230	41.928622006803	0.509792145268
1	235	43.13523330932	0.275509903851
1	240	44.841433404521	0.275509903851
1	249	45.598123032346	0.275509903851
1	254	45.873632936197	0.468088972568
1	258	46.420831009987	0.847253260538
1	261	46.696340913838	0.898236265164
1	266	48.051657803585	0.275509903851
1	275	48.625603263431	0.275509903851
1	278	48.901113167282	0.427323762172
1	281	49.176623071133	0.609057547297
1	286	52.451863918496	0.275509903851
1	291	52.752514960053	0.275509903851
1	296	53.613662854937	0.275509903851
1	303	54.675025472164	0.275509903851
1	306	54.950535376015	0.548318617763
1	311	55.650976863705	0.275509903851
1	316	56.004549718992	0.275509903851
1	321	56.459832065949	0.275509903851
1	326	57.577565169473	0.275509903851
1	331	58.709447276707	0.275509903851
1	336	59.281656895263	0.275509903851
1	343	61.135974700486	0.275509903851
1	346	61.411484604337	0.297062161656
1	351	61.72939837874	0.275509903851
1	358	63.985231279797	0.275509903851
1	361	64.260741183648	0.431655444698
1	366	64.992175411431	0.275509903851
1	373	68.092091527956	0.275509903851
1	376	68.367601431807	0.362642697439
1	381	68.722912794172	0.275509903851
1	386	70.210075487248	0.275509903851
1	391	70.52518072614	0.275509903851
1	396	71.102062476516	0.275509903851
1	401	71.938143868341	0.275509903851
1	406	73.752977979684	0.275509903851
1	413	74.613945565382	0.275509903851
1	418	74.889455469233	0.545554525975
1	421	75.164965373084	0.477628893227
1	426	80.579148073069	0.275509903851
1	433	81.946972159049	0.275509903851
1	436	82.2224820629	0.303955661384
1	441	82.789615929963	0.275509903851
1	446	83.569207034615	0.275509903851
1	453	84.98589819368	0.275509903851
1	456	85.261408097531	0.397922550721
1	463	86.557126869993	0.275509903851
1	466	86.832636773844	0.311947222906
1	473	88.586690092777	0.275509903851
1	476	88.862199996628	0.447843753486
1	481	89.348909954722	0.275509903851
1	486	92.680759918264	0.275509903851
1	491	94.098800430873	0.275509903851
1	498	94.424885897463	0.275509903851
1	503	94.700395801314	0.462893849857
1	509	95.247593875104	0.650947143109
1	514	95.523103778955	0.758966883362
1	517	95.798613682806	0.290080123299
1	522	97.692998847756	0.275509903851
1	531	98.239883556275	0.275509903851
1	534	98.515393460126	0.448431905483
1	541	98.790903363977	0.587075129844
1	544	99.066413267828	0.543796226602
1	549	99.341923171679	0.583386203436
1	554	99.61743307553	0.31455522571
1	557	99.892942979381	0.403881161678
1	562	100.398750292083	0.275509903851
1	567	101.175841242427	0.275509903851
1	572	101.683206087804	0.275509903851
1	577	102.066051039377	0.275509903851
1	582	103.488756638378	0.275509903851
1	587	103.879229368617	0.275509903851
1	592	104.56924392688	0.275509903851
1	597	105.725312081794	0.275509903851
1	602	106.082843880858	0.275509903851
1	607	106.786819372216	0.275509903851
1	612	107.365551880464	0.275509903851
1	617	108.245913406282	0.275509903851
1	622	108.713905908293	0.275509903851
1	631	109.729930253397	0.275509903851
1	634	110.005440157248	0.489994013195
1	637	110.280950061099	0.652202854909
1	642	111.613729620847	0.275509903851
1	647	113.385504304617	0.275509903851
1	652	115.61138909559	0.275509903851
1	657	120.178552346332	0.275509903851
1	662	120.946870816141	0.275509903851
1	667	121.562436403199	0.275509903851
1	672	122.441997184987	0.275509903851
1	677	123.067410826542	0.275509903851
1	682	123.747194854926	0.275509903851
1	689	124.110369268241	0.275509903851
1	692	124.385879172092	0.295087027118
1	697	124.950736357301	0.275509903851
1	702	125.229997752459	0.275509903851
1	707	125.683806715679	0.275509903851
1	714	127.513308030806	0.275509903851
1	717	127.788817934657	0.45878543408
1	722	128.781470193332	0.275509903851
1	727	129.235925689888	0.275509903851
1	732	130.117549550482	0.275509903851
1	737	130.438746707241	0.275509903851
1	744	131.911433499999	0.275509903851
1	747	132.18694340385	0.448061108364
1	752	134.327179743066	0.275509903851
1	760	134.874377816856	0.359360095714
1	767	135.149887720707	0.492882058489
1	770	135.425397624558	0.505963676426
1	773	135.700907528409	0.57237367839
1	778	135.976890436586	0.275509903851
1	783	136.53448846887	0.275509903851
1	788	137.213186014284	0.275509903851
1	793	138.751842066423	0.275509903851
1	800	139.065645981824	0.275509903851
1	805	139.341155885675	0.399958046452
1	810	139.616665789526	0.331573772163
1	813	139.892175693377	0.530190720344
1	818	140.83196340926	0.275509903851
1	823	141.611982050808	0.275509903851
1	828	143.052267685875	0.275509903851
1	833	144.841138836056	0.275509903851
1	840	146.252268163003	0.275509903851
1	843	146.527778066854	0.300361075535
1	848	148.314463110102	0.275509903851
1	853	149.003107805012	0.275509903851
1	858	149.48131133498	0.275509903851
1	865	150.236178472114	0.275509903851
1	868	150.511688375965	0.538878998252
1	875	151.02473444822	0.275509903851
1	878	151.300244352071	0.321473582008
1	885	151.625347917079	0.275509903851
1	888	151.90085782093	0.477701594275
1	893	152.181453327669	0.275509903851
1	898	154.761061335816	0.275509903851
1	903	156.936785850739	0.275509903851
1	908	157.939339938481	0.275509903851
1	913	159.022556449107	0.275509903851
1	918	159.464402107383	0.275509903851
1	923	160.122399989715	0.275509903851
1	936	160.636052586215	0.275509903851
1	939	160.911562490066	0.503859199557
1	942	161.187072393917	0.769619132356
1	946	161.462582297768	0.908829810449
1	953	162.74470171351	0.275509903851
1	958	163.020211617361	0.389412530934
1	961	163.295721521212	0.453323973249
1	966	164.684049885755	0.275509903851
1	973	166.499068544104	0.275509903851
1	980	166.774578447955	0.359769490186
1	983	167.050088351806	0.457229110919
1	988	167.325598255657	0.689191383438
1	993	167.601108159508	0.445286723565
1	996	167.876618063359	0.368576373895
1	1003	168.686273756546	0.275509903851
1	1008	168.961783660397	0.37984377587
1	1014	169.508981734187	0.673468174281
1	1017	169.784491638038	0.702310583615
1	1022	171.273836486666	0.275509903851
1	1029	172.718280703707	0.275509903851
1	1032	172.993790607558	0.384973535556
1	1039	173.989918001934	0.275509903851
1	1042	174.265427905785	0.450391033551
1	1047	174.747925773665	0.275509903851
1	1052	175.186516894329	0.275509903851
1	1057	175.972878657635	0.275509903851
1	1062	180.837628511261	0.275509903851
1	1067	183.596666962085	0.275509903851
1	1072	183.976787834087	0.275509903851
1	1079	184.696310065532	0.275509903851
1	1082	184.971819969383	0.401477171042
1	1087	187.464489841364	0.275509903851
1	1092	189.152621958743	0.275509903851
1	1099	191.854145361171	0.275509903851
1	1102	192.129655265022	0.416134969522
1	1107	193.325731921385	0.275509903851
1	1112	194.9746144945	0.275509903851
1	1117	195.948440903829	0.275509903851
1	1122	196.272639323344	0.275509903851
1	1127	196.662981956242	0.275509903851
1	1132	198.060685098956	0.275509903851
1	1137	198.909469608986	0.275509903851
1	1142	200.890823284467	0.275509903851
1	1151	201.397570073508	0.275509903851
1	1154	201.673079977359	0.515208717409
1	1157	201.94858988121	0.697912467263
1	1164	202.731550807963	0.275509903851
1	1167	203.007060711814	0.392186747368
1	1174	203.375276150165	0.275509903851
1	1177	203.650786054016	0.483306063903
1	1182	204.075264622657	0.275509903851
1	1187	206.050051045452	0.275509903851
1	1194	206.685268023997	0.275509903851
1	1199	206.960777927848	0.397330556345
1	1204	207.236287831699	0.286141542513
1	1207	207.51179773555	0.524307580991
1	1212	207.982280389392	0.275509903851
1	1217	208.634313853486	0.275509903851
1	1224	210.062666708557	0.275509903851
1	1227	210.338176612408	0.293831476273
1	1234	210.914946500618	0.275509903851
1	1237	211.190456404469	0.403264646748
1	1242	211.730479205032	0.275509903851
1	1249	213.688118593077	0.275509903851
1	1254	213.963628496928	0.389323745235
1	1257	214.239138400779	0.455905652537
1	1263	214.786336474569	0.320183933641
1	1268	215.125355170497	0.275509903851
1	1275	217.686554215183	0.275509903851
1	1284	217.962064119034	0.513357518026
1	1287	218.237574022885	0.432913609965
1	1292	218.513083926736	0.673219316738
1	1295	218.788593830587	0.928453358527
1	1298	219.064103734438	0.580331799923
1	1303	221.754534027058	0.275509903851
1	1308	224.322478645469	0.275509903851
1	1313	225.396292787875	0.275509903851
1	1322	225.900255131963	0.275509903851
1	1325	226.175765035814	0.384030528484
1	1328	226.451274939665	0.601598303434
1	1333	227.312439421812	0.275509903851
1	1338	228.008048733324	0.275509903851
1	1343	229.633455074973	0.275509903851
1	1348	230.639171704472	0.275509903851
1	1353	231.892969694083	0.275509903851
1	1360	232.225506908496	0.275509903851
1	1365	232.501016812347	0.435283429702
1	1370	232.776526716198	0.476393958342
1	1379	233.052036620049	0.313874935634
1	1382	233.3275465239	0.530850915734
1	1385	233.603056427751	0.767941630842
1	1390	233.878566331602	0.84246316752
1	1393	234.154076235453	0.326243483036
1	1400	236.564174743759	0.275509903851
1	1403	236.83968464761	0.483994037213
1	1408	237.696263796857	0.275509903851
1	1413	239.089383022684	0.275509903851
1	1418	241.06605361235	0.275509903851
1	1423	242.111190572952	0.275509903851
1	1430	245.120344459168	0.275509903851
1	1435	245.395854363019	0.495622767734
1	1438	245.67136426687	0.440363856129
1	1443	248.934484383899	0.275509903851
1	1448	249.452525693697	0.275509903851
1	1457	250.874726361576	0.275509903851
1	1462	251.150236265427	0.518692280356
1	1469	251.425746169278	0.589892687722
1	1474	251.701256073129	0.744777399855
1	1477	251.97676597698	0.747089049264
1	1482	252.252275880831	0.895883750109
1	1486	252.527785784682	0.471007358186
1	1491	253.021633121134	0.275509903851
1	1498	253.357307697886	0.275509903851
1	1501	253.632817601737	0.407757690904
1	1508	255.453911433537	0.275509903851
1	1513	255.729421337388	0.453966866784
1	1519	256.276619411178	0.636565368066
1	1524	256.552129315029	0.374697464955
1	1529	256.82763921888	0.291732184935
1	1532	257.103149122731	0.484277159826
1	1541	258.824099782172	0.275509903851
1	1544	259.099609686023	0.3909170081
1	1549	259.375119589874	0.576369759024
1	1552	259.650629493725	0.489366802387
1	1557	260.588532731357	0.275509903851
1	1562	261.651708869388	0.275509903851
1	1567	263.177542152805	0.275509903851
1	1572	264.258513057069	0.275509903851
1	1577	265.243210204885	0.275509903851
1	1582	266.239726006565	0.275509903851
1	1591	269.331847978877	0.275509903851
1	1594	269.607357882728	0.507366538851
1	1601	269.882867786579	0.756605891551
1	1608	270.15837769043	0.387418838821
1	1611	270.433887594281	0.576101830027
1	1614	270.709397498132	0.789614949726
1	1617	270.984907401983	0.854595755348
1	1624	271.823087327995	0.275509903851
1	1627	272.098597231846	0.549564593137
1	1634	275.851873581229	0.275509903851
1	1637	276.12738348508	0.461206839723
1	1642	276.725032176384	0.275509903851
1	1647	279.121514871442	0.275509903851
1	1652	280.333665085801	0.275509903851
1	1657	282.169295498315	0.275509903851
1	1664	283.124945696523	0.275509903851
1	1667	283.400455600374	0.278380238441
1	1672	286.824212442545	0.275509903851
1	1677	287.807720365487	0.275509903851
1	1682	288.486330216252	0.275509903851
1	1687	288.803943092439	0.275509903851
1	1692	289.209081355616	0.275509903851
1	1697	290.270359540292	0.275509903851
1	1702	292.4784112101	0.275509903851
1	1707	292.830097688377	0.275509903851
1	1712	293.718465561342	0.275509903851
1	1717	295.490786742384	0.275509903851
1	1724	295.778576982485	0.275509903851
1	1727	296.054086886336	0.377384737674
1	1732	296.735209953559	0.275509903851
1	1737	297.27878469971	0.275509903851
1	1742	298.595240284368	0.275509903851
1	1747	299.555377302968	0.275509903851
1	1752	299.985282862208	0.275509903851
1	1759	300.632703080557	0.275509903851
1	1762	300.908212984408	0.382916818537
1	1768	301.893257818463	0.275509903851
1	1775	302.432748492516	0.275509903851
1	1780	302.708258396367	0.548927873553
1	1783	302.983768300218	0.318188047305
1	1788	303.295897401907	0.275509903851
1	1793	303.582536553	0.275509903851
1	1798	304.158297492369	0.275509903851
1	1803	304.591952546976	0.275509903851
1	1810	305.485442538528	0.275509903851
1	1813	305.760952442379	0.486491159044
1	1818	306.614250902704	0.275509903851
1	1825	307.327812447558	0.275509903851
1	1828	307.603322351409	0.327286226978
1	1833	308.192738909059	0.275509903851
1	1838	309.070928651516	0.275509903851
1	1843	309.363597443502	0.275509903851
1	1850	309.822290684854	0.275509903851
1	1855	310.097800588705	0.29828341638
1	1858	310.373310492556	0.473553409059
1	1863	310.941649252938	0.275509903851
1	1868	312.023630747121	0.275509903851
1	1875	313.531807041594	0.275509903851
1	1878	313.807316945445	0.460924958886
1	1883	314.720578958624	0.275509903851
1	1888	315.050501238076	0.275509903851
1	1893	316.037611725942	0.275509903851
1	1898	318.392550762686	0.275509903851
1	1905	319.047324303864	0.275509903851
1	1910	319.322834207715	0.412167060033
1	1915	319.598344111566	0.420279199491
1	1918	319.873854015417	0.488574512207
1	1923	321.62822133364	0.275509903851
1	1928	323.336900481921	0.275509903851
1	1933	323.719848324532	0.275509903851
1	1940	327.073661135722	0.275509903851
1	1943	327.349171039573	0.462259215408
1	1948	327.761250523282	0.275509903851
1	1953	328.656191309576	0.275509903851
1	1958	329.743928562582	0.275509903851
1	1963	330.426806496761	0.275509903851
1	1968	331.296804265674	0.275509903851
1	1973	331.801413099155	0.275509903851
1	1978	333.119826616409	0.275509903851
1	1983	333.407006662573	0.275509903851
1	1990	336.034166197345	0.275509903851
1	1993	336.309676101196	0.353597960338
1	2000	336.688395751073	0.275509903851
1	2003	336.963905654924	0.53279376695
1	2008	337.764899350426	0.275509903851
1	2013	338.055117559306	0.275509903851
1	2021	338.902857856624	0.275509903851
1	2024	339.178367760475	0.542169347296
1	2029	339.586836557979	0.275509903851
1	2036	339.995855266128	0.275509903851
1	2039	340.271365169979	0.474236834442
1	2048	341.030426622838	0.275509903851
1	2051	341.305936526689	0.331259600556
1	2054	341.58144643054	0.564268149479
1	2061	341.881813481156	0.275509903851
1	2064	342.157323385007	0.455185797007
1	2069	343.499821877741	0.275509903851
1	2076	345.154187717818	0.275509903851
1	2079	345.429697621669	0.469733432592
1	2086	345.851790783428	0.275509903851
1	2091	346.127300687279	0.470393937094
1	2094	346.40281059113	0.327630832456
1	2099	348.975842142903	0.275509903851
1	2104	350.78843131202	0.275509903851
1	2111	352.479624161937	0.275509903851
1	2114	352.755134065788	0.398450874448
1	2119	353.821224891808	0.275509903851
1	2124	354.145376835822	0.275509903851
1	2129	355.109229970532	0.275509903851
1	2134	356.154889275714	0.275509903851
1	2141	356.733030089635	0.275509903851
1	2144	357.008539993486	0.447353843942
1	2149	357.313923443517	0.275509903851
1	2156	357.789185668645	0.275509903851
1	2159	358.064695572496	0.394667115149
1	2164	358.760247354589	0.275509903851
1	2169	361.746557695403	0.275509903851
1	2176	363.085885583962	0.275509903851
1	2181	363.361395487813	0.305600719906
1	2184	363.636905391664	0.394416827981
1	2191	365.947741795795	0.275509903851
1	2194	366.223251699646	0.488101351413
1	2201	366.59819005063	0.275509903851
1	2204	366.873699954481	0.544918244587
1	2211	367.949227206551	0.275509903851
1	2214	368.224737110402	0.314263058879
1	2219	369.026083663037	0.275509903851
1	2226	369.652841525523	0.275509903851
1	2231	369.928351429374	0.437600762101
1	2234	370.203861333225	0.397504754079
1	2239	370.553401196494	0.275509903851
1	2244	371.599786236063	0.275509903851
1	2249	372.444515153179	0.275509903851
1	2254	374.143879596076	0.275509903851
1	2259	374.604035821462	0.275509903851
1	2266	375.127938444317	0.275509903851
1	2274	375.675136518107	0.54939330429
1	2279	375.950646421958	0.803056057356
1	2282	376.226156325809	0.585675480224
1	2287	376.50166622966	0.614579814545
1	2290	376.777176133511	0.504596150849
1	2295	378.268934779494	0.275509903851
1	2300	379.320145018804	0.275509903851
1	2305	379.654659604258	0.275509903851
1	2310	380.862040796582	0.275509903851
1	2315	381.47404306705	0.275509903851
1	2320	381.91307366281	0.275509903851
1	2325	382.596230412863	0.275509903851
1	2332	383.48822829717	0.275509903851
1	2335	383.763738201021	0.403056695851
1	2340	386.069845372551	0.275509903851
1	2345	386.522874135713	0.275509903851
1	2350	388.694104893207	0.275509903851
1	2355	391.34032279633	0.275509903851
1	2360	391.694183536197	0.275509903851
1	2367	392.720538068307	0.275509903851
1	2370	392.996047972158	0.379160798417
1	2377	393.95687206354	0.275509903851
1	2380	394.232381967391	0.376947208481
1	2385	395.978328896046	0.275509903851
1	2390	397.158126634494	0.275509903851
1	2395	397.583656275827	0.275509903851
1	2400	399.015383737293	0.275509903851
1	2405	399.856676820949	0.275509903851
1	2410	400.569420269057	0.275509903851
1	2415	400.943843376392	0.275509903851
1	2422	401.577673907906	0.275509903851
1	2425	401.853183811757	0.544832965372
1	2430	402.510245635958	0.275509903851
1	2435	403.797568548108	0.275509903851
1	2440	404.567394562818	0.275509903851
1	2445	404.95067640694	0.275509903851
1	2450	407.29745311161	0.275509903851
1	2455	408.037335210166	0.275509903851
1	2462	409.712039831844	0.275509903851
1	2465	409.987549735695	0.543773409701
1	2472	410.534160357938	0.275509903851
1	2479	410.809670261789	0.403755899911
1	2482	411.08518016564	0.445498329894
1	2485	411.360690069491	0.579179545078
1	2490	411.937611654412	0.275509903851
1	2495	412.890630937024	0.275509903851
1	2500	415.837589451967	0.275509903851
1	2507	416.138333450862	0.275509903851
1	2512	416.413843354713	0.548474559582
1	2515	416.689353258564	0.547609647708
1	2523	418.374036501942	0.275509903851
1	2526	418.649546405793	0.516758451142
1	2533	420.382247296331	0.275509903851
1	2542	420.657757200182	0.471840693535
1	2545	420.933267104033	0.543677689904
1	2550	421.208777007884	0.775875222732
1	2554	421.484286911735	0.519096812747
1	2559	421.852306726792	0.275509903851
1	2564	422.17838435665	0.275509903851
1	2571	423.174256618933	0.275509903851
1	2574	423.449766522784	0.456642337692
1	2581	423.738031796233	0.275509903851
1	2588	424.013541700084	0.524537087145
1	2591	424.289051603935	0.437530343544
1	2594	424.564561507786	0.677225355928
1	2599	426.392700065242	0.275509903851
1	2604	427.488055216116	0.275509903851
1	2609	428.376479385986	0.275509903851
1	2614	429.402633144128	0.275509903851
1	2619	431.623827935239	0.275509903851
1	2624	433.08915149103	0.275509903851
1	2629	436.177756337512	0.275509903851
1	2634	437.821947363066	0.275509903851
1	2641	438.376406991371	0.275509903851
1	2648	438.651916895222	0.286822610534
1	2651	438.927426799073	0.392766428743
1	2654	439.202936702924	0.599291522814
1	2661	441.776470116673	0.275509903851
1	2666	442.051980020524	0.51319188493
1	2669	442.327489924375	0.369099075838
1	2674	442.953076882738	0.275509903851
1	2679	446.294388725365	0.275509903851
1	2684	446.945328718474	0.275509903851
1	2689	447.621926865912	0.275509903851
1	2696	448.354648704705	0.275509903851
1	2701	448.630158608556	0.477754498588
1	2704	448.905668512407	0.477915869043
1	2711	450.06634263902	0.275509903851
1	2714	450.341852542871	0.401061093726
1	2719	452.344841509773	0.275509903851
1	2724	452.960650713822	0.275509903851
1	2729	455.423927794203	0.275509903851
1	2734	456.174800058182	0.275509903851
1	2741	458.102337304447	0.275509903851
1	2744	458.377847208298	0.466459867366
1	2751	458.770292836295	0.275509903851
1	2754	459.045802740146	0.329309518529
1	2759	459.889703538884	0.275509903851
1	2764	461.702659641475	0.275509903851
1	2769	463.142993345502	0.275509903851
1	2775	463.79530702745	0.275509903851
1	2780	465.389949550389	0.275509903851
1	2787	466.39836957192	0.275509903851
1	2790	466.673879475771	0.422225520646
1	2797	467.262119927756	0.275509903851
1	2804	467.537629831607	0.344166047467
1	2809	467.813139735458	0.48521931347
1	2812	468.088649639309	0.61874637937
1	2815	468.36415954316	0.769546642422
1	2822	468.749219308656	0.275509903851
1	2827	469.024729212507	0.400345405706
1	2834	469.300239116358	0.436226055712
1	2837	469.575749020209	0.312717363227
1	2840	469.85125892406	0.552439708357
1	2847	470.870426327262	0.275509903851
1	2852	471.145936231113	0.467035814521
1	2857	471.421446134964	0.439959800064
1	2860	471.696956038815	0.531201500848
1	2865	473.522284877126	0.275509903851
1	2872	473.826268461418	0.275509903851
1	2875	474.101778365269	0.410113530699
1	2880	476.127626870614	0.275509903851
1	2885	478.858779665001	0.275509903851
1	2890	481.813068350376	0.275509903851
1	2895	482.129789833816	0.275509903851
1	2900	482.558396510146	0.275509903851
1	2905	484.01218275719	0.275509903851
1	2910	485.449119452744	0.275509903851
1	2917	486.76302043334	0.275509903851
1	2920	487.038530337191	0.442920633216
1	2925	488.506845436944	0.275509903851
1	2930	489.091484017162	0.275509903851
1	2937	490.073641786206	0.275509903851
1	2942	490.349151690057	0.536380208544
1	2945	490.624661593908	0.331964930136
1	2950	493.069765926978	0.275509903851
1	2955	493.601883682343	0.275509903851
1	2962	495.259773758049	0.275509903851
1	2965	495.5352836619	0.476075683545
1	2972	496.013152364785	0.275509903851
1	2975	496.288662268636	0.296021163645
1	2980	498.3601979783	0.275509903851
1	2985	500.036902102642	0.275509903851
1	2990	500.329159733969	0.275509903851
1	2995	500.870366288994	0.275509903851
1	3000	502.820438483759	0.275509903851
1	3005	503.173659965286	0.275509903851
1	3010	503.450811997921	0.275509903851
1	3017	503.803156847746	0.275509903851
1	3020	504.078666751597	0.326679729573
1	3028	505.278112316585	0.275509903851
1	3031	505.553622220436	0.469967950182
1	3038	508.181912955757	0.275509903851
1	3041	508.457422859608	0.461311089484
1	3046	509.570259309533	0.275509903851
1	3053	510.976380954918	0.275509903851
1	3058	511.251890858769	0.353343393066
1	3061	511.52740076262	0.499469903563
1	3068	515.30489541565	0.275509903851
1	3073	515.580405319501	0.364267688796
1	3076	515.855915223352	0.364739852546
1	3083	516.813965698977	0.275509903851
1	3088	517.089475602828	0.291479952894
1	3091	517.364985506679	0.301136699678
1	3096	518.727752734003	0.275509903851
1	3101	520.076881631099	0.275509903851
1	3106	521.062730712682	0.275509903851
1	3111	523.234748543495	0.275509903851
1	3118	525.670723522233	0.275509903851
1	3121	525.946233426084	0.519137963946
1	3128	526.27381374648	0.275509903851
1	3131	526.549323650331	0.444229187122
1	3136	527.466104047108	0.275509903851
1	3141	530.192124109711	0.275509903851
1	3146	530.520700132555	0.275509903851
1	3151	531.176706837884	0.275509903851
1	3160	533.042935706732	0.275509903851
1	3163	533.318445610583	0.429604975638
1	3166	533.593955514434	0.569529182187
1	3171	534.210351753573	0.275509903851
1	3176	534.58366762801	0.275509903851
1	3183	535.436763944813	0.275509903851
1	3186	535.712273848664	0.411783931046
1	3191	537.976996965452	0.275509903851
1	3196	539.182683131383	0.275509903851
1	3201	540.979945894873	0.275509903851
1	3208	541.464721408233	0.275509903851
1	3211	541.740231312084	0.280694368386
1	3218	542.320107255695	0.275509903851
1	3221	542.595617159546	0.362258426585
1	3226	542.872847756086	0.275509903851
1	3231	543.165305178259	0.275509903851
1	3236	543.728625596019	0.275509903851
1	3241	544.199362353596	0.275509903851
1	3248	544.676466204059	0.275509903851
1	3253	544.95197610791	0.426623895398
1	3256	545.227486011761	0.386227171837
1	3261	545.682536301423	0.275509903851
1	3266	546.187584035935	0.275509903851
1	3271	547.634648506798	0.275509903851
1	3277	548.574122305567	0.275509903851
1	3284	550.398643421254	0.275509903851
1	3287	550.674153325105	0.276371318296
1	3292	551.213940022811	0.275509903851
1	3297	551.607061384843	0.275509903851
1	3302	553.667223542022	0.275509903851
1	3307	554.040147308839	0.275509903851
1	3312	554.486723433666	0.275509903851
1	3317	554.811744397961	0.275509903851
1	3322	555.44336046594	0.275509903851
1	3331	555.890532432358	0.275509903851
1	3334	556.166042336209	0.489003444651
1	3337	556.44155224006	0.750339019844
1	3342	557.089723542771	0.275509903851
1	3347	557.709399117066	0.275509903851
1	3352	558.98892256526	0.275509903851
1	3357	559.954246482243	0.275509903851
1	3362	561.79171124275	0.275509903851
1	3367	562.600858991285	0.275509903851
1	3372	563.363938859848	0.275509903851
1	3377	563.749353682514	0.275509903851
1	3384	564.855343353657	0.275509903851
1	3389	565.130853257508	0.494277509933
1	3392	565.406363161359	0.518184991162
1	3401	566.447048873836	0.275509903851
1	3404	566.722558777687	0.466959863231
1	3409	566.998068681538	0.670849066512
1	3412	567.273578585389	0.444268253133
1	3417	568.480403455312	0.275509903851
1	3422	570.186161677181	0.275509903851
1	3429	570.473703815948	0.275509903851
1	3432	570.749213719799	0.394778347053
1	3437	571.345135740533	0.275509903851
1	3442	572.042032262318	0.275509903851
1	3447	573.547590278743	0.275509903851
1	3452	574.135712990346	0.275509903851
1	3457	574.489867738799	0.275509903851
1	3462	575.971669022305	0.275509903851
1	3467	578.397673550493	0.275509903851
1	3478	579.773301144433	0.275509903851
1	3481	580.048811048284	0.450976847444
1	3484	580.324320952135	0.647980711525
1	3489	580.599830855986	0.837883087764
1	3492	580.875340759837	0.501374990027
1	3497	581.39870624329	0.275509903851
1	3502	583.285206455744	0.275509903851
1	3509	584.93150591193	0.275509903851
1	3512	585.207015815781	0.323873334379
1	3519	585.539017802782	0.275509903851
1	3524	585.814527706633	0.520955165789
1	3528	586.361725780423	0.788467190958
1	3535	587.361337815685	0.275509903851
1	3540	587.636847719536	0.479859016663
1	3543	587.912357623387	0.445867787923
1	3548	588.359342119796	0.275509903851
1	3555	589.336404707939	0.275509903851
1	3558	589.61191461179	0.36842754124
1	3565	590.134179652018	0.275509903851
1	3568	590.409689555869	0.362169383229
1	3575	590.954169960884	0.275509903851
1	3578	591.229679864735	0.356540767651
1	3583	591.968466803104	0.275509903851
1	3588	593.109413329925	0.275509903851
1	3593	593.445024099848	0.275509903851
1	3598	594.084597815654	0.275509903851
1	3605	594.781096034901	0.275509903851
1	3608	595.056605938752	0.280016205581
1	3613	596.255964263642	0.275509903851
1	3618	596.847845286843	0.275509903851
1	3625	597.445513794487	0.275509903851
1	3630	597.721023698338	0.32360382283
1	3633	597.996533602189	0.318550601364
1	3638	598.530761807208	0.275509903851
1	3645	599.369664962751	0.275509903851
1	3652	599.645174866602	0.539310427009
1	3657	599.920684770453	0.439519762077
1	3660	600.196194674304	0.705863545185
1	3665	600.471704578155	0.6020919798
1	3670	600.747214482006	0.323008113311
1	3673	601.022724385857	0.278380349155
1	3678	601.600427298892	0.275509903851
1	3683	601.985584762002	0.275509903851
1	3688	604.066728882147	0.275509903851
1	3693	604.890908443933	0.275509903851
1	3698	607.421205857835	0.275509903851
1	3703	607.770954465158	0.275509903851
1	3710	608.448061320102	0.275509903851
1	3713	608.723571223953	0.380554483425
1	3718	609.176987916232	0.275509903851
1	3725	609.822192196492	0.275509903851
1	3730	610.097702100343	0.524522033171
1	3733	610.373212004194	0.41736529219
1	3738	611.099882441269	0.275509903851
1	3743	611.601240490825	0.275509903851
1	3750	612.074989597754	0.275509903851
1	3753	612.350499501605	0.395904592581
1	3760	613.475753892214	0.275509903851
1	3763	613.751263796065	0.546186101708
1	3770	614.077782611397	0.275509903851
1	3773	614.353292515248	0.317213625181
1	3779	617.051671189062	0.275509903851
1	3784	618.389986112482	0.275509903851
1	3789	618.769170537678	0.275509903851
1	3796	619.407929663865	0.275509903851
1	3799	619.683439567716	0.286249387266
1	3806	621.166343790765	0.275509903851
1	3811	621.441853694616	0.506878771457
1	3814	621.717363598467	0.384663262742
1	3823	622.101131376042	0.275509903851
1	3826	622.376641279893	0.507035027683
1	3831	622.652151183744	0.62048624699
1	3834	622.927661087595	0.309347591202
1	3839	624.160852552527	0.275509903851
1	3844	627.182423035279	0.275509903851
1	3849	628.893787768525	0.275509903851
1	3854	631.522016347034	0.275509903851
1	3859	632.884002042305	0.275509903851
1	3864	635.387174364781	0.275509903851
1	3871	636.004688048704	0.275509903851
1	3874	636.280197952555	0.53120802657
1	3879	636.73829040366	0.275509903851
1	3884	639.559913938273	0.275509903851
1	3889	640.712144926671	0.275509903851
1	3896	643.154113252782	0.275509903851
1	3899	643.429623156633	0.276683709762
1	3904	644.869980649373	0.275509903851
1	3909	647.045516472578	0.275509903851
1	3916	648.931562641448	0.275509903851
1	3919	649.207072545299	0.296685992504
1	3924	650.100998727231	0.275509903851
1	3929	651.587251324883	0.275509903851
1	3934	651.974555622302	0.275509903851
1	3941	653.622206351005	0.275509903851
1	3944	653.897716254856	0.534413151194
1	3949	654.36845234577	0.275509903851
1	3954	654.947359079804	0.275509903851
1	3959	657.16013193499	0.275509903851
1	3964	658.109414577295	0.275509903851
1	3971	658.522170662814	0.275509903851
1	3976	658.797680566665	0.344388888278
1	3979	659.073190470516	0.486294703992
1	3984	659.447459736541	0.275509903851
1	3993	660.098107173954	0.275509903851
1	3996	660.373617077805	0.397025575379
1	4001	660.649126981656	0.656016817344
1	4004	660.924636885507	0.377223301763
1	4009	662.184926608003	0.275509903851
1	4014	665.213386651118	0.275509903851
1	4021	666.382582332389	0.275509903851
1	4024	666.65809223624	0.28228552854
1	4032	668.100626817371	0.275509903851
1	4035	668.376136721222	0.547949187048
1	4040	669.017911742285	0.275509903851
1	4045	669.647372575074	0.275509903851
1	4050	671.399748586282	0.275509903851
1	4055	673.06321915082	0.275509903851
1	4062	674.572687241999	0.275509903851
1	4067	674.84819714585	0.400439459231
1	4070	675.123707049701	0.445302151134
1	4075	677.11751066307	0.275509903851
1	4080	677.632104569704	0.275509903851
1	4085	678.634379047435	0.275509903851
1	4090	679.164380040411	0.275509903851
1	4095	681.391318044127	0.275509903851
1	4102	682.555198439179	0.275509903851
1	4107	682.83070834303	0.288730427496
1	4110	683.106218246881	0.513788854379
1	4115	683.390685976522	0.275509903851
1	4120	683.710889880113	0.275509903851
1	4127	684.134450707886	0.275509903851
1	4130	684.409960611737	0.530998680945
1	4137	686.711516950309	0.275509903851
1	4140	686.98702685416	0.287688433809
1	4147	688.048539244069	0.275509903851
1	4150	688.32404914792	0.380096352712
1	4157	689.057102206757	0.275509903851
1	4160	689.332612110608	0.507777802225
1	4165	691.812046561628	0.275509903851
1	4170	692.259334238135	0.275509903851
1	4175	692.717608772307	0.275509903851
1	4180	693.105397474306	0.275509903851
1	4187	695.077559166408	0.275509903851
1	4192	695.353069070259	0.344327834611
1	4195	695.62857897411	0.543911713673
1	4202	696.043333706012	0.275509903851
1	4205	696.318843609863	0.36316893189
1	4210	697.592329472669	0.275509903851
1	4215	699.487353517999	0.275509903851
1	4220	701.211743022301	0.275509903851
1	4225	703.516334110544	0.275509903851
1	4236	703.895527030056	0.275509903851
1	4239	704.171036933907	0.489052066557
1	4242	704.446546837758	0.725509691698
1	4245	704.722056741609	0.918570073723
1	4250	707.376982138616	0.275509903851
1	4259	710.683800796346	0.275509903851
1	4262	710.959310700197	0.509821772589
1	4265	711.234820604048	0.6940237832
1	4272	712.640943411859	0.275509903851
1	4275	712.91645331571	0.461940064561
1	4283	714.34754519238	0.275509903851
1	4286	714.623055096231	0.41310647408
1	4291	714.901971175844	0.275509903851
1	4296	715.697109839693	0.275509903851
1	4301	716.792775585741	0.275509903851
1	4308	717.490055428105	0.275509903851
1	4313	717.765565331956	0.439395905933
1	4318	718.041075235807	0.40721989323
1	4323	718.316585139658	0.446042611843
1	4328	718.592095043509	0.341544322833
1	4331	718.86760494736	0.507182267265
1	4336	719.152598230804	0.275509903851
1	4341	719.455296055521	0.275509903851
1	4348	720.287389268081	0.275509903851
1	4351	720.562899171932	0.314018931801
1	4358	722.125154959801	0.275509903851
1	4361	722.400664863652	0.532669926348
1	4366	723.041093501388	0.275509903851
1	4371	723.620459804105	0.275509903851
1	4376	725.048358677537	0.275509903851
1	4381	725.717882321249	0.275509903851
1	4388	726.910955943107	0.275509903851
1	4393	727.186465846958	0.334557726555
1	4396	727.461975750809	0.319016221672
1	4401	728.461520617677	0.275509903851
1	4406	728.964808129227	0.275509903851
1	4411	729.336555845112	0.275509903851
1	4416	729.678807587697	0.275509903851
1	4421	731.080767741605	0.275509903851
1	4426	731.669551345453	0.275509903851
1	4433	733.835773070241	0.275509903851
1	4436	734.111282974092	0.425456319872
1	4441	734.756659905488	0.275509903851
1	4446	735.404808664386	0.275509903851
1	4451	736.383228393164	0.275509903851
1	4458	736.895413583787	0.275509903851
1	4461	737.170923487638	0.465969755321
1	4466	738.43854152872	0.275509903851
1	4471	740.527322407154	0.275509903851
1	4478	745.436628717623	0.275509903851
1	4481	745.712138621474	0.367289259321
1	4486	747.125550662083	0.275509903851
1	4491	747.426221603191	0.275509903851
1	4496	748.275207237323	0.275509903851
1	4501	749.687250467718	0.275509903851
1	4506	750.91556361424	0.275509903851
1	4511	751.657141966336	0.275509903851
1	4516	753.874968187684	0.275509903851
1	4521	754.451714465522	0.275509903851
1	4526	755.255271763687	0.275509903851
1	4532	758.214840191201	0.275509903851
1	4537	758.613603969804	0.275509903851
1	4542	759.310372050176	0.275509903851
1	4547	759.919914147074	0.275509903851
1	4552	760.716204419003	0.275509903851
1	4561	761.141178922987	0.275509903851
1	4564	761.416688826838	0.484031009634
1	4567	761.692198730689	0.583661212892
1	4574	762.282295014155	0.275509903851
1	4577	762.557804918006	0.30119612477
1	4584	764.960372167187	0.275509903851
1	4587	765.235882071038	0.540368441955
1	4594	768.400361617003	0.275509903851
1	4597	768.675871520854	0.408289984242
1	4602	769.537433171798	0.275509903851
1	4607	769.993583737463	0.275509903851
1	4612	770.615450307458	0.275509903851
1	4619	770.930767317964	0.275509903851
1	4622	771.206277221815	0.49061612449
1	4629	774.58352966438	0.275509903851
1	4632	774.859039568231	0.326207552192
1	4637	775.528769364637	0.275509903851
1	4644	777.507524931943	0.275509903851
1	4647	777.783034835794	0.470715332519
1	4654	779.758901411543	0.275509903851
1	4659	780.034411315394	0.283500812967
1	4666	780.309921219245	0.533187831316
1	4669	780.585431123096	0.452909079957
1	4674	780.860941026947	0.624150951148
1	4677	781.136450930798	0.405321561429
1	4682	782.018642344889	0.275509903851
1	4687	782.859343889414	0.275509903851
1	4692	783.582091310289	0.275509903851
1	4697	784.514652356458	0.275509903851
1	4702	785.041786152487	0.275509903851
1	4709	786.295402575068	0.275509903851
1	4714	786.570912478919	0.312608251452
1	4717	786.84642238277	0.531036778576
1	4722	787.317395500211	0.275509903851
1	4727	788.765380403046	0.275509903851
1	4734	791.276089043077	0.275509903851
1	4737	791.551598946928	0.434005472383
1	4744	792.293440119167	0.275509903851
1	4747	792.568950023018	0.455958335146
1	4752	793.523933946894	0.275509903851
1	4759	794.327622002821	0.275509903851
1	4762	794.603131906672	0.546218092339
1	4769	795.608840187845	0.275509903851
1	4772	795.884350091696	0.343309084149
1	4779	796.670418322747	0.275509903851
1	4783	797.217616396537	0.634951219966
1	4788	797.634838515645	0.275509903851
1	4793	798.709361167041	0.275509903851
1	4800	799.62731089398	0.275509903851
1	4805	799.902820797831	0.521556126285
1	4808	800.178330701682	0.550533336269
1	4813	800.879734347183	0.275509903851
1	4818	801.26288247397	0.275509903851
1	4823	804.881814634978	0.275509903851
1	4828	805.367957672705	0.275509903851
1	4833	807.162507175306	0.275509903851
1	4840	808.648506326679	0.275509903851
1	4843	808.92401623053	0.393720032532
1	4850	809.584994315167	0.275509903851
1	4853	809.860504219018	0.496824252823
1	4858	812.263314304023	0.275509903851
1	4865	813.007047488577	0.275509903851
1	4870	813.282557392428	0.322762663757
1	4875	813.558067296279	0.522439559844
1	4880	813.83357720013	0.50416117883
1	4883	814.109087103981	0.309008013359
1	4894	814.42674138715	0.275509903851
1	4899	814.702251291001	0.410115992907
1	4902	814.977761194852	0.611193351497
1	4905	815.253271098703	0.864688179537
1	4912	815.528781002554	0.835510013759
1	4915	815.804290906405	0.521770046724
1	4920	816.079800810256	0.605448445348
1	4925	816.355310714107	0.387865987227
1	4930	816.630820617958	0.382945985877
1	4933	816.906330521809	0.40258620649
1	4938	818.387287841667	0.275509903851
1	4943	820.252668100157	0.275509903851
1	4950	822.46381983336	0.275509903851
1	4953	822.739329737211	0.489169888139
1	4958	823.447633433783	0.275509903851
1	4963	823.743377881829	0.275509903851
1	4970	824.474321286163	0.275509903851
1	4973	824.749831190014	0.472415299649
1	4978	825.581266409709	0.275509903851
1	4983	827.862722784219	0.275509903851
1	4990	828.515719401576	0.275509903851
1	4995	828.791229305427	0.463441683618
1	5000	829.066739209278	0.307317884596
1	5003	829.342249113129	0.354275850485
1	5008	830.056514469976	0.275509903851
1	5013	831.269814275729	0.275509903851
1	5020	832.123300894631	0.275509903851
1	5023	832.398810798482	0.388268667968
1	5028	833.454197230372	0.275509903851
1	5034	834.001395304162	0.408692510806
1	5041	834.584895343435	0.275509903851
1	5044	834.860405247286	0.298000807443
1	5049	835.695100688442	0.275509903851
1	5054	836.63763462541	0.275509903851
1	5059	837.475702186863	0.275509903851
1	5064	844.013743653318	0.275509903851
1	5071	844.38451158863	0.275509903851
1	5074	844.660021492481	0.341509386384
1	5079	845.78959752603	0.275509903851
1	5084	846.880622045483	0.275509903851
1	5091	847.245646317343	0.275509903851
1	5094	847.521156221194	0.438367447819
1	5099	848.067671580836	0.275509903851
1	5104	848.956567906174	0.275509903851
1	5109	849.633085031088	0.275509903851
1	5114	851.623306241615	0.275509903851
1	5119	852.837675213456	0.275509903851
1	5126	853.924790216147	0.275509903851
1	5131	854.200300119998	0.496114215556
1	5134	854.475810023849	0.291434808095
1	5139	855.235386496059	0.275509903851
1	5144	859.747977396741	0.275509903851
1	5153	860.936156675986	0.275509903851
1	5156	861.211666579837	0.535617598332
1	5161	861.487176483688	0.740065027101
1	5166	861.762686387539	0.489950720497
1	5171	862.03819629139	0.325289248963
1	5174	862.313706195241	0.520820899285
1	5179	863.019532265277	0.275509903851
1	5186	863.802297434276	0.275509903851
1	5189	864.077807338127	0.538719047821
1	5194	864.90147733035	0.275509903851
1	5199	869.787338199592	0.275509903851
1	5204	870.443184133048	0.275509903851
1	5209	871.782058597185	0.275509903851
1	5214	872.728890939895	0.275509903851
1	5219	873.355958134986	0.275509903851
1	5224	874.205107667568	0.275509903851
1	5231	878.211852943536	0.275509903851
1	5234	878.487362847387	0.278250941831
1	5239	879.193875316086	0.275509903851
1	5244	879.584475688595	0.275509903851
1	5249	880.97073555289	0.275509903851
1	5256	882.997605394534	0.275509903851
1	5259	883.273115298385	0.48725966363
1	5268	883.578023443163	0.275509903851
1	5271	883.853533347014	0.395495537737
1	5276	884.129043250865	0.655807657442
1	5279	884.404553154716	0.479436241714
1	5285	885.116893902292	0.275509903851
1	5290	885.490352907428	0.275509903851
1	5297	887.730725276048	0.275509903851
1	5300	888.006235179899	0.508666506945
1	5305	888.422541037264	0.275509903851
1	5310	889.938866360387	0.275509903851
1	5321	890.436887517449	0.275509903851
1	5324	890.7123974213	0.528651833641
1	5327	890.987907325151	0.76014455254
1	5330	891.263417229002	0.915496364271
1	5335	891.758810981066	0.275509903851
1	5340	892.072706564026	0.275509903851
1	5347	892.394593077372	0.275509903851
1	5350	892.670102981223	0.431460850441
1	5355	895.017705348874	0.275509903851
1	5364	895.743231215561	0.275509903851
1	5367	896.018741119412	0.475744272377
1	5372	896.294251023263	0.553626063143
1	5375	896.569760927114	0.30891079525
1	5382	897.09630809547	0.275509903851
1	5385	897.371817999321	0.413626397063
1	5392	897.682686704503	0.275509903851
1	5395	897.958196608354	0.307609779538
1	5400	899.66449045816	0.275509903851
1	5405	899.981395640711	0.275509903851
1	5410	900.821440255914	0.275509903851
1	5415	901.486908941192	0.275509903851
1	5420	901.823251803288	0.275509903851
1	5427	902.560607573212	0.275509903851
1	5430	902.836117477063	0.432051543309
1	5435	903.431638457504	0.275509903851
1	5440	903.748348922856	0.275509903851
1	5445	904.211434082298	0.275509903851
1	5450	905.042852172073	0.275509903851
1	5455	905.555098327551	0.275509903851
1	5462	906.314623618283	0.275509903851
1	5465	906.590133522134	0.521954062466
1	5474	907.30205374232	0.275509903851
1	5477	907.577563646171	0.373183713161
1	5480	907.853073550022	0.567856557406
1	5485	908.269577255193	0.275509903851
1	5490	908.676114807666	0.275509903851
1	5497	910.167131801391	0.275509903851
1	5500	910.442641705242	0.477839572976
1	5505	911.31467125148	0.275509903851
1	5510	913.287833260803	0.275509903851
1	5517	914.201359456102	0.275509903851
1	5522	914.476869359953	0.449164878853
1	5525	914.752379263804	0.508186705825
1	5530	916.030805217814	0.275509903851
1	5538	917.101708821236	0.275509903851
1	5541	917.377218725087	0.505391191786
1	5546	918.025142803662	0.275509903851
1	5551	919.658737006691	0.275509903851
1	5556	920.733422847162	0.275509903851
1	5561	921.276300990913	0.275509903851
1	5566	921.660988759386	0.275509903851
1	5573	923.271925587889	0.275509903851
1	5576	923.54743549174	0.317764708363
1	5581	923.959633918307	0.275509903851
1	5586	924.297699717884	0.275509903851
1	5591	925.076896609064	0.275509903851
1	5596	926.429288186518	0.275509903851
1	5601	927.538841519053	0.275509903851
1	5606	928.593526824675	0.275509903851
1	5613	931.425244024747	0.275509903851
1	5616	931.700753928598	0.506606539872
1	5621	932.411912733123	0.275509903851
1	5626	932.954630216871	0.275509903851
1	5631	934.103299814334	0.275509903851
1	5638	934.433746164226	0.275509903851
1	5641	934.709256068077	0.309223534741
1	5646	935.440132941284	0.275509903851
1	5651	937.358881226862	0.275509903851
1	5658	937.833656509969	0.275509903851
1	5661	938.10916641382	0.369529149787
1	5668	939.466993648113	0.275509903851
1	5673	939.742503551964	0.308427317705
1	5676	940.018013455815	0.541557308887
1	5681	940.718846775144	0.275509903851
1	5686	942.205717068192	0.275509903851
1	5691	945.3308814306	0.275509903851
1	5696	947.654348496948	0.275509903851
1	5701	948.599713236312	0.275509903851
1	5706	949.247316837487	0.275509903851
1	5713	951.556500459504	0.275509903851
1	5716	951.832010363355	0.456820570549
1	5721	952.601308812147	0.275509903851
1	5728	953.723253150778	0.275509903851
1	5731	953.998763054629	0.430156263316
1	5738	955.585364339856	0.275509903851
1	5741	955.860874243707	0.409403769909
1	5746	956.381494033867	0.275509903851
1	5753	956.797863431731	0.275509903851
1	5756	957.073373335582	0.278372194406
1	5761	957.416175323238	0.275509903851
1	5766	960.361140532552	0.275509903851
1	5771	962.957635681958	0.275509903851
1	5776	966.091425980951	0.275509903851
1	5781	966.464138537865	0.275509903851
1	5789	968.582365566973	0.275509903851
1	5792	968.857875470824	0.331790183865
1	5797	970.892873720664	0.275509903851
1	5806	972.608898995919	0.275509903851
1	5811	972.88440889977	0.503997122238
1	5814	973.159918803621	0.745986273931
1	5817	973.435428707472	0.649947587819
1	5824	974.466049459527	0.275509903851
1	5827	974.741559363378	0.386456464774
1	5832	975.201959770877	0.275509903851
1	5837	975.940282274544	0.275509903851
1	5842	976.300275776995	0.275509903851
1	5847	978.502313118108	0.275509903851
1	5852	978.942756807831	0.275509903851
1	5857	979.879662840291	0.275509903851
1	5864	980.321342856025	0.275509903851
1	5867	980.596852759876	0.299527255173
1	5872	980.993371332747	0.275509903851
1	5877	984.635297049766	0.275509903851
1	5882	985.48617429208	0.275509903851
1	5889	986.452133592675	0.275509903851
1	5892	986.727643496526	0.31867327585
1	5897	987.294293013447	0.275509903851
1	5904	988.211800126797	0.275509903851
1	5907	988.487310030648	0.365032146132
1	5912	989.920244291101	0.275509903851
1	5917	990.478911224368	0.275509903851
1	5922	990.896963169031	0.275509903851
1	5927	991.207274838816	0.275509903851
1	5932	992.099371088438	0.275509903851
1	5937	993.101014803443	0.275509903851
1	5942	993.47829993054	0.275509903851
1	5949	993.771068995133	0.275509903851
1	5952	994.046578898984	0.397750902934
1	5957	994.593010653693	0.275509903851
1	5962	995.409931951382	0.275509903851
1	5967	995.972645555462	0.275509903851
1	5976	997.219022609663	0.275509903851
1	5981	997.494532513514	0.416680305274
1	5986	997.770042417365	0.612420552577
1	5991	998.045552321216	0.748346114864
1	5994	998.321062225067	0.80424377666
1	5997	998.596572128918	0.637833466528
1	6002	998.963651979457	0.275509903851
2	5	0.379706709088	0
2	10	0.984740285188	0
2	15	2.440297408398	0
2	20	2.946109560035	0
2	25	3.555997977494	0
2	32	4.494545543755	0
2	37	4.770055447606	0.013126789454
2	44	5.045565351457	0.168467123945
2	49	5.321075255308	0.249008475475
2	52	5.596585159159	0.441071530799
2	57	5.87209506301	0.429314250048
2	60	6.147604966861	0.16185974393
2	65	9.503130826192	0
2	70	11.707797828158	0
2	75	13.47695502604	0
2	80	14.023446348979	0
2	85	14.751485445459	0
2	90	15.150864750109	0
2	95	16.805401090101	0
2	100	17.634841449517	0
2	105	18.255637123124	0
2	110	19.288742522701	0
2	117	22.108638970093	0
2	122	22.384148873944	0.102890641298
2	125	22.659658777795	0.251094925463
2	132	23.381951023737	0
2	135	23.657460927588	0.250434281767
2	142	24.011786777244	0
2	147	24.287296681095	0.030062702393
2	152	24.562806584946	0.025373488055
2	157	24.838316488797	0.252905041561
2	160	25.113826392648	0.206685615645
2	165	26.258410926392	0
2	170	29.599456240837	0
2	175	33.426949630299	0
2	180	33.989856788804	0
2	189	35.376559500105	0
2	192	35.652069403956	0.21856618975
2	195	35.927579307807	0.30699505817
2	200	37.269828453394	0
2	207	40.250758330241	0
2	212	40.526268234092	0.191061273319
2	215	40.801778137943	0.049647135374
2	220	41.115617981883	0
2	227	41.653112102952	0
2	230	41.928622006803	0.234282241417
2	235	43.13523330932	0
2	240	44.841433404521	0
2	249	45.598123032346	0
2	254	45.873632936197	0.192579068717
2	258	46.420831009987	0.571743356687
2	261	46.696340913838	0.622726361313
2	266	48.051657803585	0
2	275	48.625603263431	0
2	278	48.901113167282	0.151813858321
2	281	49.176623071133	0.333547643446
2	286	52.451863918496	0
2	291	52.752514960053	0
2	296	53.613662854937	0
2	303	54.675025472164	0
2	306	54.950535376015	0.272808713912
2	311	55.650976863705	0
2	316	56.004549718992	0
2	321	56.459832065949	0
2	326	57.577565169473	0
2	331	58.709447276707	0
2	336	59.281656895263	0
2	343	61.135974700486	0
2	346	61.411484604337	0.021552257805
2	351	61.72939837874	0
2	358	63.985231279797	0
2	361	64.260741183648	0.156145540847
2	366	64.992175411431	0
2	373	68.092091527956	0
2	376	68.367601431807	0.087132793588
2	381	68.722912794172	0
2	386	70.210075487248	0
2	391	70.52518072614	0
2	396	71.102062476516	0
2	401	71.938143868341	0
2	406	73.752977979684	0
2	413	74.613945565382	0
2	418	74.889455469233	0.270044622124
2	421	75.164965373084	0.202118989376
2	426	80.579148073069	0
2	433	81.946972159049	0
2	436	82.2224820629	0.028445757533
2	441	82.789615929963	0
2	446	83.569207034615	0
2	453	84.98589819368	0
2	456	85.261408097531	0.12241264687
2	463	86.557126869993	0
2	466	86.832636773844	0.036437319055
2	473	88.586690092777	0
2	476	88.862199996628	0.172333849635
2	481	89.348909954722	0
2	486	92.680759918264	0
2	491	94.098800430873	0
2	498	94.424885897463	0
2	503	94.700395801314	0.187383946006
2	509	95.247593875104	0.375437239258
2	514	95.523103778955	0.483456979511
2	517	95.798613682806	0.014570219448
2	522	97.692998847756	0
2	531	98.239883556275	0
2	534	98.515393460126	0.172922001632
2	541	98.790903363977	0.311565225993
2	544	99.066413267828	0.268286322751
2	549	99.341923171679	0.307876299585
2	554	99.61743307553	0.039045321859
2	557	99.892942979381	0.128371257827
2	562	100.398750292083	0
2	567	101.175841242427	0
2	572	101.683206087804	0
2	577	102.066051039377	0
2	582	103.488756638378	0
2	587	103.879229368617	0
2	592	104.56924392688	0
2	597	105.725312081794	0
2	602	106.082843880858	0
2	607	106.786819372216	0
2	612	107.365551880464	0
2	617	108.245913406282	0
2	622	108.713905908293	0
2	631	109.729930253397	0
2	634	110.005440157248	0.214484109344
2	637	110.280950061099	0.376692951058
2	642	111.613729620847	0
2	647	113.385504304617	0
2	652	115.61138909559	0
2	657	120.178552346332	0
2	662	120.946870816141	0
2	667	121.562436403199	0
2	672	122.441997184987	0
2	677	123.067410826542	0
2	682	123.747194854926	0
2	689	124.110369268241	0
2	692	124.385879172092	0.019577123267
2	697	124.950736357301	0
2	702	125.229997752459	0
2	707	125.683806715679	0
2	714	127.513308030806	0
2	717	127.788817934657	0.183275530229
2	722	128.781470193332	0
2	727	129.235925689888	0
2	732	130.117549550482	0
2	737	130.438746707241	0
2	744	131.911433499999	0
2	747	132.18694340385	0.172551204513
2	752	134.327179743066	0
2	760	134.874377816856	0.083850191863
2	767	135.149887720707	0.217372154638
2	770	135.425397624558	0.230453772575
2	773	135.700907528409	0.296863774539
2	778	135.976890436586	0
2	783	136.53448846887	0
2	788	137.213186014284	0
2	793	138.751842066423	0
2	800	139.065645981824	0
2	805	139.341155885675	0.124448142601
2	810	139.616665789526	0.056063868312
2	813	139.892175693377	0.254680816493
2	818	140.83196340926	0
2	823	141.611982050808	0
2	828	143.052267685875	0
2	833	144.841138836056	0
2	840	146.252268163003	0
2	843	146.527778066854	0.024851171684
2	848	148.314463110102	0
2	853	149.003107805012	0
2	858	149.48131133498	0
2	865	150.236178472114	0
2	868	150.511688375965	0.263369094401
2	875	151.02473444822	0
2	878	151.300244352071	0.045963678157
2	885	151.625347917079	0
2	888	151.90085782093	0.202191690424
2	893	152.181453327669	0
2	898	154.761061335816	0
2	903	156.936785850739	0
2	908	157.939339938481	0
2	913	159.022556449107	0
2	918	159.464402107383	0
2	923	160.122399989715	0
2	936	160.636052586215	0
2	939	160.911562490066	0.228349295706
2	942	161.187072393917	0.494109228505
2	946	161.462582297768	0.633319906598
2	953	162.74470171351	0
2	958	163.020211617361	0.113902627083
2	961	163.295721521212	0.177814069398
2	966	164.684049885755	0
2	973	166.499068544104	0
2	980	166.774578447955	0.084259586335
2	983	167.050088351806	0.181719207068
2	988	167.325598255657	0.413681479587
2	993	167.601108159508	0.169776819714
2	996	167.876618063359	0.093066470044
2	1003	168.686273756546	0
2	1008	168.961783660397	0.104333872019
2	1014	169.508981734187	0.39795827043
2	1017	169.784491638038	0.426800679764
2	1022	171.273836486666	0
2	1029	172.718280703707	0
2	1032	172.993790607558	0.109463631705
2	1039	173.989918001934	0
2	1042	174.265427905785	0.1748811297
2	1047	174.747925773665	0
2	1052	175.186516894329	0
2	1057	175.972878657635	0
2	1062	180.837628511261	0
2	1067	183.596666962085	0
2	1072	183.976787834087	0
2	1079	184.696310065532	0
2	1082	184.971819969383	0.125967267191
2	1087	187.464489841364	0
2	1092	189.152621958743	0
2	1099	191.854145361171	0
2	1102	192.129655265022	0.140625065671
2	1107	193.325731921385	0
2	1112	194.9746144945	0
2	1117	195.948440903829	0
2	1122	196.272639323344	0
2	1127	196.662981956242	0
2	1132	198.060685098956	0
2	1137	198.909469608986	0
2	1142	200.890823284467	0
2	1151	201.397570073508	0
2	1154	201.673079977359	0.239698813558
2	1157	201.94858988121	0.422402563412
2	1164	202.731550807963	0
2	1167	203.007060711814	0.116676843517
2	1174	203.375276150165	0
2	1177	203.650786054016	0.207796160052
2	1182	204.075264622657	0
2	1187	206.050051045452	0
2	1194	206.685268023997	0
2	1199	206.960777927848	0.121820652494
2	1204	207.236287831699	0.010631638662
2	1207	207.51179773555	0.24879767714
2	1212	207.982280389392	0
2	1217	208.634313853486	0
2	1224	210.062666708557	0
2	1227	210.338176612408	0.018321572422
2	1234	210.914946500618	0
2	1237	211.190456404469	0.127754742897
2	1242	211.730479205032	0
2	1249	213.688118593077	0
2	1254	213.963628496928	0.113813841384
2	1257	214.239138400779	0.180395748686
2	1263	214.786336474569	0.04467402979
2	1268	215.125355170497	0
2	1275	217.686554215183	0
2	1284	217.962064119034	0.237847614175
2	1287	218.237574022885	0.157403706114
2	1292	218.513083926736	0.397709412887
2	1295	218.788593830587	0.652943454676
2	1298	219.064103734438	0.304821896072
2	1303	221.754534027058	0
2	1308	224.322478645469	0
2	1313	225.396292787875	0
2	1322	225.900255131963	0
2	1325	226.175765035814	0.108520624633
2	1328	226.451274939665	0.326088399583
2	1333	227.312439421812	0
2	1338	228.008048733324	0
2	1343	229.633455074973	0
2	1348	230.639171704472	0
2	1353	231.892969694083	0
2	1360	232.225506908496	0
2	1365	232.501016812347	0.159773525851
2	1370	232.776526716198	0.200884054491
2	1379	233.052036620049	0.038365031783
2	1382	233.3275465239	0.255341011883
2	1385	233.603056427751	0.492431726991
2	1390	233.878566331602	0.566953263669
2	1393	234.154076235453	0.050733579185
2	1400	236.564174743759	0
2	1403	236.83968464761	0.208484133362
2	1408	237.696263796857	0
2	1413	239.089383022684	0
2	1418	241.06605361235	0
2	1423	242.111190572952	0
2	1430	245.120344459168	0
2	1435	245.395854363019	0.220112863883
2	1438	245.67136426687	0.164853952278
2	1443	248.934484383899	0
2	1448	249.452525693697	0
2	1457	250.874726361576	0
2	1462	251.150236265427	0.243182376505
2	1469	251.425746169278	0.314382783871
2	1474	251.701256073129	0.469267496004
2	1477	251.97676597698	0.471579145413
2	1482	252.252275880831	0.620373846258
2	1486	252.527785784682	0.195497454335
2	1491	253.021633121134	0
2	1498	253.357307697886	0
2	1501	253.632817601737	0.132247787053
2	1508	255.453911433537	0
2	1513	255.729421337388	0.178456962933
2	1519	256.276619411178	0.361055464215
2	1524	256.552129315029	0.099187561104
2	1529	256.82763921888	0.016222281084
2	1532	257.103149122731	0.208767255975
2	1541	258.824099782172	0
2	1544	259.099609686023	0.115407104249
2	1549	259.375119589874	0.300859855173
2	1552	259.650629493725	0.213856898536
2	1557	260.588532731357	0
2	1562	261.651708869388	0
2	1567	263.177542152805	0
2	1572	264.258513057069	0
2	1577	265.243210204885	0
2	1582	266.239726006565	0
2	1591	269.331847978877	0
2	1594	269.607357882728	0.231856635
2	1601	269.882867786579	0.4810959877
2	1608	270.15837769043	0.11190893497
2	1611	270.433887594281	0.300591926176
2	1614	270.709397498132	0.514105045875
2	1617	270.984907401983	0.579085851497
2	1624	271.823087327995	0
2	1627	272.098597231846	0.274054689286
2	1634	275.851873581229	0
2	1637	276.12738348508	0.185696935872
2	1642	276.725032176384	0
2	1647	279.121514871442	0
2	1652	280.333665085801	0
2	1657	282.169295498315	0
2	1664	283.124945696523	0
2	1667	283.400455600374	0.00287033459
2	1672	286.824212442545	0
2	1677	287.807720365487	0
2	1682	288.486330216252	0
2	1687	288.803943092439	0
2	1692	289.209081355616	0
2	1697	290.270359540292	0
2	1702	292.4784112101	0
2	1707	292.830097688377	0
2	1712	293.718465561342	0
2	1717	295.490786742384	0
2	1724	295.778576982485	0
2	1727	296.054086886336	0.101874833823
2	1732	296.735209953559	0
2	1737	297.27878469971	0
2	1742	298.595240284368	0
2	1747	299.555377302968	0
2	1752	299.985282862208	0
2	1759	300.632703080557	0
2	1762	300.908212984408	0.107406914686
2	1768	301.893257818463	0
[...]
7	5271	883.853533347014	0
7	5276	884.129043250865	0
7	5279	884.404553154716	0
7	5285	885.116893902292	0
7	5290	885.490352907428	0
7	5297	887.730725276048	0
7	5300	888.006235179899	0
7	5305	888.422541037264	0
7	5310	889.938866360387	0
7	5321	890.436887517449	0
7	5324	890.7123974213	0
7	5327	890.987907325151	0
7	5330	891.263417229002	0
7	5335	891.758810981066	0
7	5340	892.072706564026	0
7	5347	892.394593077372	0
7	5350	892.670102981223	0
7	5355	895.017705348874	0
7	5364	895.743231215561	0
7	5367	896.018741119412	0
7	5372	896.294251023263	0
7	5375	896.569760927114	0
7	5382	897.09630809547	0
7	5385	897.371817999321	0
7	5392	897.682686704503	0
7	5395	897.958196608354	0
7	5400	899.66449045816	0
7	5405	899.981395640711	0
7	5410	900.821440255914	0
7	5415	901.486908941192	0
7	5420	901.823251803288	0
7	5427	902.560607573212	0
7	5430	902.836117477063	0
7	5435	903.431638457504	0
7	5440	903.748348922856	0
7	5445	904.211434082298	0
7	5450	905.042852172073	0
7	5455	905.555098327551	0
7	5462	906.314623618283	0
7	5465	906.590133522134	0
7	5474	907.30205374232	0
7	5477	907.577563646171	0
7	5480	907.853073550022	0
7	5485	908.269577255193	0
7	5490	908.676114807666	0
7	5497	910.167131801391	0
7	5500	910.442641705242	0
7	5505	911.31467125148	0
7	5510	913.287833260803	0
7	5517	914.201359456102	0
7	5522	914.476869359953	0
7	5525	914.752379263804	0
7	5530	916.030805217814	0
7	5538	917.101708821236	0
7	5541	917.377218725087	0
7	5546	918.025142803662	0
7	5551	919.658737006691	0
7	5556	920.733422847162	0
7	5561	921.276300990913	0
7	5566	921.660988759386	0
7	5573	923.271925587889	0
7	5576	923.54743549174	0
7	5581	923.959633918307	0
7	5586	924.297699717884	0
7	5591	925.076896609064	0
7	5596	926.429288186518	0
7	5601	927.538841519053	0
7	5606	928.593526824675	0
7	5613	931.425244024747	0
7	5616	931.700753928598	0
7	5621	932.411912733123	0
7	5626	932.954630216871	0
7	5631	934.103299814334	0
7	5638	934.433746164226	0
7	5641	934.709256068077	0
7	5646	935.440132941284	0
7	5651	937.358881226862	0
7	5658	937.833656509969	0
7	5661	938.10916641382	0
7	5668	939.466993648113	0
7	5673	939.742503551964	0
7	5676	940.018013455815	0
7	5681	940.718846775144	0
7	5686	942.205717068192	0
7	5691	945.3308814306	0
7	5696	947.654348496948	0
7	5701	948.599713236312	0
7	5706	949.247316837487	0
7	5713	951.556500459504	0
7	5716	951.832010363355	0
7	5721	952.601308812147	0
7	5728	953.723253150778	0
7	5731	953.998763054629	0
7	5738	955.585364339856	0
7	5741	955.860874243707	0
7	5746	956.381494033867	0
7	5753	956.797863431731	0
7	5756	957.073373335582	0
7	5761	957.416175323238	0
7	5766	960.361140532552	0
7	5771	962.957635681958	0
7	5776	966.091425980951	0
7	5781	966.464138537865	0
7	5789	968.582365566973	0
7	5792	968.857875470824	0
7	5797	970.892873720664	0
7	5806	972.608898995919	0
7	5811	972.88440889977	0
7	5814	973.159918803621	0
7	5817	973.435428707472	0
7	5824	974.466049459527	0
7	5827	974.741559363378	0
7	5832	975.201959770877	0
7	5837	975.940282274544	0
7	5842	976.300275776995	0
7	5847	978.502313118108	0
7	5852	978.942756807831	0
7	5857	979.879662840291	0
7	5864	980.321342856025	0
7	5867	980.596852759876	0
7	5872	980.993371332747	0
7	5877	984.635297049766	0
7	5882	985.48617429208	0
7	5889	986.452133592675	0
7	5892	986.727643496526	0
7	5897	987.294293013447	0
7	5904	988.211800126797	0
7	5907	988.487310030648	0
7	5912	989.920244291101	0
7	5917	990.478911224368	0
7	5922	990.896963169031	0
7	5927	991.207274838816	0
7	5932	992.099371088438	0
7	5937	993.101014803443	0
7	5942	993.47829993054	0
7	5949	993.771068995133	0
7	5952	994.046578898984	0
7	5957	994.593010653693	0
7	5962	995.409931951382	0
7	5967	995.972645555462	0
7	5976	997.219022609663	0
7	5981	997.494532513514	0
7	5986	997.770042417365	0
7	5991	998.045552321216	0
7	5994	998.321062225067	0
7	5997	998.596572128918	0
7	6002	998.963651979457	0
8	31	4.494545543755	0.013126789454
8	36	4.770055447606	0.168467123945
8	43	5.045565351457	0.249008475475
8	48	5.321075255308	0.441071530799
8	51	5.596585159159	0.429314250048
8	56	5.87209506301	0.16185974393
8	116	22.108638970093	0.102890641298
8	121	22.384148873944	0.251094925463
8	131	23.381951023737	0.250434281767
8	141	24.011786777244	0.030062702393
8	146	24.287296681095	0.025373488055
8	151	24.562806584946	0.252905041561
8	156	24.838316488797	0.206685615645
8	188	35.376559500105	0.21856618975
8	191	35.652069403956	0.30699505817
8	206	40.250758330241	0.191061273319
8	211	40.526268234092	0.049647135374
8	226	41.653112102952	0.234282241417
8	248	45.598123032346	0.192579068717
8	255	46.145321106136	0.571743356687
8	257	46.420831009987	0.622726361313
8	274	48.625603263431	0.151813858321
8	277	48.901113167282	0.333547643446
8	302	54.675025472164	0.272808713912
8	342	61.135974700486	0.021552257805
8	357	63.985231279797	0.156145540847
8	372	68.092091527956	0.087132793588
8	412	74.613945565382	0.270044622124
8	417	74.889455469233	0.202118989376
8	432	81.946972159049	0.028445757533
8	452	84.98589819368	0.12241264687
8	462	86.557126869993	0.036437319055
8	472	88.586690092777	0.172333849635
8	497	94.424885897463	0.187383946006
8	506	94.972083971253	0.375437239258
8	508	95.247593875104	0.483456979511
8	513	95.523103778955	0.014570219448
8	530	98.239883556275	0.172922001632
8	533	98.515393460126	0.311565225993
8	540	98.790903363977	0.268286322751
8	543	99.066413267828	0.307876299585
8	548	99.341923171679	0.039045321859
8	553	99.61743307553	0.128371257827
8	630	109.729930253397	0.214484109344
8	633	110.005440157248	0.376692951058
8	688	124.110369268241	0.019577123267
8	713	127.513308030806	0.183275530229
8	743	131.911433499999	0.172551204513
8	755	134.598867913005	0.083850191863
8	759	134.874377816856	0.217372154638
8	766	135.149887720707	0.230453772575
8	769	135.425397624558	0.296863774539
8	799	139.065645981824	0.124448142601
8	804	139.341155885675	0.056063868312
8	809	139.616665789526	0.254680816493
8	839	146.252268163003	0.024851171684
8	864	150.236178472114	0.263369094401
8	874	151.02473444822	0.045963678157
8	884	151.625347917079	0.202191690424
8	935	160.636052586215	0.228349295706
8	938	160.911562490066	0.494109228505
8	941	161.187072393917	0.749107503579
8	943	161.187072393917	0.633319906598
8	952	162.74470171351	0.113902627083
8	957	163.020211617361	0.177814069398
8	972	166.499068544104	0.084259586335
8	979	166.774578447955	0.181719207068
8	982	167.050088351806	0.413681479587
8	987	167.325598255657	0.169776819714
8	992	167.601108159508	0.093066470044
8	1002	168.686273756546	0.104333872019
8	1011	169.233471830336	0.39795827043
8	1013	169.508981734187	0.426800679764
8	1028	172.718280703707	0.109463631705
8	1038	173.989918001934	0.1748811297
8	1078	184.696310065532	0.125967267191
8	1098	191.854145361171	0.140625065671
8	1150	201.397570073508	0.239698813558
8	1153	201.673079977359	0.422402563412
8	1163	202.731550807963	0.116676843517
8	1173	203.375276150165	0.207796160052
8	1193	206.685268023997	0.121820652494
8	1198	206.960777927848	0.010631638662
8	1203	207.236287831699	0.24879767714
8	1223	210.062666708557	0.018321572422
8	1233	210.914946500618	0.127754742897
8	1248	213.688118593077	0.113813841384
8	1253	213.963628496928	0.180395748686
8	1260	214.510826570718	0.04467402979
8	1274	217.686554215183	0.237847614175
8	1283	217.962064119034	0.157403706114
8	1286	218.237574022885	0.397709412887
8	1291	218.513083926736	0.652943454676
8	1294	218.788593830587	0.304821896072
8	1321	225.900255131963	0.108520624633
8	1324	226.175765035814	0.326088399583
8	1359	232.225506908496	0.159773525851
8	1364	232.501016812347	0.200884054491
8	1369	232.776526716198	0.038365031783
8	1378	233.052036620049	0.255341011883
8	1381	233.3275465239	0.492431726991
8	1384	233.603056427751	0.566953263669
8	1389	233.878566331602	0.050733579185
8	1399	236.564174743759	0.208484133362
8	1429	245.120344459168	0.220112863883
8	1434	245.395854363019	0.164853952278
8	1456	250.874726361576	0.243182376505
8	1461	251.150236265427	0.314382783871
8	1468	251.425746169278	0.469267496004
8	1473	251.701256073129	0.471579145413
8	1476	251.97676597698	0.620373846258
8	1481	252.252275880831	0.744585735471
8	1483	252.252275880831	0.195497454335
8	1497	253.357307697886	0.132247787053
8	1507	255.453911433537	0.178456962933
8	1514	256.001109507327	0.361055464215
8	1518	256.276619411178	0.099187561104
8	1523	256.552129315029	0.016222281084
8	1528	256.82763921888	0.208767255975
8	1540	258.824099782172	0.115407104249
8	1543	259.099609686023	0.300859855173
8	1548	259.375119589874	0.213856898536
8	1590	269.331847978877	0.231856635
8	1593	269.607357882728	0.4810959877
8	1600	269.882867786579	0.11190893497
8	1607	270.15837769043	0.300591926176
8	1610	270.433887594281	0.514105045875
8	1613	270.709397498132	0.579085851497
8	1623	271.823087327995	0.274054689286
8	1633	275.851873581229	0.185696935872
8	1663	283.124945696523	0.00287033459
8	1723	295.778576982485	0.101874833823
8	1758	300.632703080557	0.107406914686
8	1774	302.432748492516	0.273417969702
8	1779	302.708258396367	0.042678143454
8	1809	305.485442538528	0.210981255193
8	1824	307.327812447558	0.051776323127
8	1849	309.822290684854	0.022773512529
8	1854	310.097800588705	0.198043505208
8	1874	313.531807041594	0.185415055035
8	1904	319.047324303864	0.136657156182
8	1909	319.322834207715	0.14476929564
8	1914	319.598344111566	0.213064608356
8	1939	327.073661135722	0.186749311557
8	1989	336.034166197345	0.078088056487
8	1999	336.688395751073	0.257283863099
8	2020	338.902857856624	0.266659443445
8	2035	339.995855266128	0.198726930591
8	2047	341.030426622838	0.055749696705
8	2050	341.305936526689	0.288758245628
8	2060	341.881813481156	0.179675893156
8	2075	345.154187717818	0.194223528741
8	2085	345.851790783428	0.194884033243
8	2090	346.127300687279	0.052120928605
8	2110	352.479624161937	0.122940970597
8	2140	356.733030089635	0.171843940091
8	2155	357.789185668645	0.119157211298
8	2175	363.085885583962	0.030090816055
8	2180	363.361395487813	0.11890692413
8	2190	365.947741795795	0.212591447562
8	2200	366.59819005063	0.269408340736
8	2210	367.949227206551	0.038753155028
8	2225	369.652841525523	0.16209085825
8	2230	369.928351429374	0.121994850228
8	2269	375.399626614256	0.273883400439
8	2273	375.675136518107	0.527546153505
8	2278	375.950646421958	0.310165576373
8	2281	376.226156325809	0.339069910694
8	2286	376.50166622966	0.229086246998
8	2331	383.48822829717	0.127546792
8	2366	392.720538068307	0.103650894566
8	2376	393.95687206354	0.10143730463
8	2421	401.577673907906	0.269323061521
8	2461	409.712039831844	0.26826350585
8	2471	410.534160357938	0.12824599606
8	2478	410.809670261789	0.169988426043
8	2481	411.08518016564	0.303669641227
8	2506	416.138333450862	0.272964655731
8	2511	416.413843354713	0.272099743857
8	2522	418.374036501942	0.241248547291
8	2532	420.382247296331	0.196330789684
8	2541	420.657757200182	0.268167786053
8	2544	420.933267104033	0.500365318881
8	2549	421.208777007884	0.716301005883
8	2551	421.208777007884	0.243586908896
8	2570	423.174256618933	0.181132433841
8	2580	423.738031796233	0.249027183294
8	2587	424.013541700084	0.162020439693
8	2590	424.289051603935	0.401715452077
8	2640	438.376406991371	0.011312706683
8	2647	438.651916895222	0.117256524892
8	2650	438.927426799073	0.323781618963
8	2660	441.776470116673	0.237681981079
8	2665	442.051980020524	0.093589171987
8	2695	448.354648704705	0.202244594737
8	2700	448.630158608556	0.202405965192
8	2710	450.06634263902	0.125551189875
8	2740	458.102337304447	0.190949963515
8	2750	458.770292836295	0.053799614678
8	2786	466.39836957192	0.146715616795
8	2796	467.262119927756	0.068656143616
8	2803	467.537629831607	0.209709409619
8	2808	467.813139735458	0.343236475519
8	2811	468.088649639309	0.494036738571
8	2821	468.749219308656	0.124835501855
8	2826	469.024729212507	0.160716151861
8	2833	469.300239116358	0.037207459376
8	2836	469.575749020209	0.276929804506
8	2846	470.870426327262	0.19152591067
8	2851	471.145936231113	0.164449896213
8	2856	471.421446134964	0.255691596997
8	2871	473.826268461418	0.134603626848
8	2916	486.76302043334	0.167410729365
8	2936	490.073641786206	0.260870304693
8	2941	490.349151690057	0.056455026285
8	2961	495.259773758049	0.200565779694
8	2971	496.013152364785	0.020511259794
8	3016	503.803156847746	0.051169825722
8	3027	505.278112316585	0.194458046331
8	3037	508.181912955757	0.185801185633
8	3052	510.976380954918	0.077833489215
8	3057	511.251890858769	0.223959999712
8	3067	515.30489541565	0.088757784945
8	3072	515.580405319501	0.089229948695
8	3082	516.813965698977	0.015970049043
8	3087	517.089475602828	0.025626795827
8	3117	525.670723522233	0.243628060095
8	3127	526.27381374648	0.168719283271
8	3159	533.042935706732	0.154095071787
8	3162	533.318445610583	0.294019278336
8	3182	535.436763944813	0.136274027195
8	3207	541.464721408233	0.005184464535
8	3217	542.320107255695	0.086748522734
8	3247	544.676466204059	0.151113991547
8	3252	544.95197610791	0.110717267986
8	3283	550.398643421254	0.000861414445
8	3330	555.890532432358	0.2134935408
8	3333	556.166042336209	0.474829115993
8	3383	564.855343353657	0.218767606082
8	3388	565.130853257508	0.242675087311
8	3400	566.447048873836	0.19144995938
8	3403	566.722558777687	0.395339162661
8	3408	566.998068681538	0.168758349282
8	3428	570.473703815948	0.119268443202
8	3477	579.773301144433	0.175466943593
8	3480	580.048811048284	0.372470807674
8	3483	580.324320952135	0.562373183913
8	3488	580.599830855986	0.225865086176
8	3508	584.93150591193	0.048363430528
8	3518	585.539017802782	0.245445261938
8	3525	586.086215876572	0.512957287107
8	3534	587.361337815685	0.204349112812
8	3539	587.636847719536	0.170357884072
8	3554	589.336404707939	0.092917637389
8	3564	590.134179652018	0.086659479378
8	3574	590.954169960884	0.0810308638
8	3604	594.781096034901	0.00450630173
8	3624	597.445513794487	0.048093918979
8	3629	597.721023698338	0.043040697513
8	3644	599.369664962751	0.263800523158
8	3651	599.645174866602	0.164009858226
8	3656	599.920684770453	0.430353641334
8	3659	600.196194674304	0.326582075949
8	3664	600.471704578155	0.04749820946
8	3669	600.747214482006	0.002870445304
8	3709	608.448061320102	0.105044579574
8	3724	609.822192196492	0.24901212932
8	3729	610.097702100343	0.141855388339
8	3749	612.074989597754	0.12039468873
8	3759	613.475753892214	0.270676197857
8	3769	614.077782611397	0.04170372133
8	3795	619.407929663865	0.010739483415
8	3805	621.166343790765	0.231368867606
8	3810	621.441853694616	0.109153358891
8	3822	622.101131376042	0.231525123832
8	3825	622.376641279893	0.344976343139
8	3830	622.652151183744	0.033837687351
8	3870	636.004688048704	0.255698122719
8	3895	643.154113252782	0.001173805911
8	3915	648.931562641448	0.021176088653
8	3940	653.622206351005	0.258903247343
8	3970	658.522170662814	0.068878984427
8	3975	658.797680566665	0.210784800141
8	3992	660.098107173954	0.121515671528
8	3995	660.373617077805	0.380506913493
8	4000	660.649126981656	0.101713397912
8	4020	666.382582332389	0.006775624689
8	4031	668.100626817371	0.272439283197
8	4061	674.572687241999	0.12492955538
8	4066	674.84819714585	0.169792247283
8	4101	682.555198439179	0.013220523645
8	4106	682.83070834303	0.238278950528
8	4126	684.134450707886	0.255488777094
8	4136	686.711516950309	0.012178529958
8	4146	688.048539244069	0.104586448861
8	4156	689.057102206757	0.232267898374
8	4186	695.077559166408	0.06881793076
8	4191	695.353069070259	0.268401809822
8	4201	696.043333706012	0.087659028039
8	4235	703.895527030056	0.213542162706
8	4238	704.171036933907	0.449999787847
8	4241	704.446546837758	0.643060169872
8	4258	710.683800796346	0.234311868738
8	4261	710.959310700197	0.418513879349
8	4271	712.640943411859	0.18643016071
8	4282	714.34754519238	0.137596570229
8	4307	717.490055428105	0.163886002082
8	4312	717.765565331956	0.131709989379
8	4317	718.041075235807	0.170532707992
8	4322	718.316585139658	0.066034418982
8	4327	718.592095043509	0.231672363414
8	4347	720.287389268081	0.03850902795
8	4357	722.125154959801	0.257160022497
8	4387	726.910955943107	0.059047822704
8	4392	727.186465846958	0.043506317821
8	4432	733.835773070241	0.149946416021
8	4457	736.895413583787	0.19045985147
8	4477	745.436628717623	0.09177935547
8	4560	761.141178922987	0.208521105783
8	4563	761.416688826838	0.308151309041
8	4573	762.282295014155	0.025686220919
8	4583	764.960372167187	0.264858538104
8	4593	768.400361617003	0.132780080391
8	4618	770.930767317964	0.215106220639
8	4628	774.58352966438	0.050697648341
8	4643	777.507524931943	0.195205428668
8	4653	779.758901411543	0.007990909116
8	4658	780.034411315394	0.257677927465
8	4665	780.309921219245	0.177399176106
8	4668	780.585431123096	0.348641047297
8	4673	780.860941026947	0.129811657578
8	4708	786.295402575068	0.037098347601
8	4713	786.570912478919	0.255526874725
8	4733	791.276089043077	0.158495568532
8	4743	792.293440119167	0.180448431295
8	4758	794.327622002821	0.270708188488
8	4768	795.608840187845	0.067799180298
8	4780	796.942106492686	0.359441316115
8	4799	799.62731089398	0.246046222434
8	4804	799.902820797831	0.275023432418
8	4839	808.648506326679	0.118210128681
8	4849	809.584994315167	0.221314348972
8	4864	813.007047488577	0.047252759906
8	4869	813.282557392428	0.246929655993
8	4874	813.558067296279	0.228651274979
8	4879	813.83357720013	0.033498109508
8	4893	814.42674138715	0.134606089056
8	4898	814.702251291001	0.335683447646
8	4901	814.977761194852	0.589178275686
8	4904	815.253271098703	0.560000109908
8	4911	815.528781002554	0.246260142873
8	4914	815.804290906405	0.329938541497
8	4919	816.079800810256	0.112356083376
8	4924	816.355310714107	0.107436082026
8	4929	816.630820617958	0.127076302639
8	4949	822.46381983336	0.213659984288
8	4969	824.474321286163	0.196905395798
8	4989	828.515719401576	0.187931779767
8	4994	828.791229305427	0.031807980745
8	4999	829.066739209278	0.078765946634
8	5019	832.123300894631	0.112758764117
8	5031	833.725885400311	0.133182606955
8	5040	834.584895343435	0.022490903592
8	5070	844.38451158863	0.065999482533
8	5090	847.245646317343	0.162857543968
8	5125	853.924790216147	0.220604311705
8	5130	854.200300119998	0.015924904244
8	5152	860.936156675986	0.260107694481
8	5155	861.211666579837	0.46455512325
8	5160	861.487176483688	0.214440816646
8	5165	861.762686387539	0.049779345112
8	5170	862.03819629139	0.245310995434
8	5185	863.802297434276	0.26320914397
8	5230	878.211852943536	0.00274103798
8	5255	882.997605394534	0.211749759779
8	5267	883.578023443163	0.119985633886
8	5270	883.853533347014	0.380297753591
8	5275	884.129043250865	0.203926337863
8	5296	887.730725276048	0.233156603094
8	5320	890.436887517449	0.25314192979
8	5323	890.7123974213	0.484634648689
8	5326	890.987907325151	0.63998646042
8	5346	892.394593077372	0.15595094659
8	5363	895.743231215561	0.200234368526
8	5366	896.018741119412	0.278116159292
8	5371	896.294251023263	0.033400891399
8	5381	897.09630809547	0.138116493212
8	5391	897.682686704503	0.032099875687
8	5426	902.560607573212	0.156541639458
8	5461	906.314623618283	0.246444158615
8	5473	907.30205374232	0.09767380931
8	5476	907.577563646171	0.292346653555
8	5496	910.167131801391	0.202329669125
8	5516	914.201359456102	0.173654975002
8	5521	914.476869359953	0.232676801974
8	5537	917.101708821236	0.229881287935
8	5572	923.271925587889	0.042254804512
8	5612	931.425244024747	0.231096636021
8	5637	934.433746164226	0.03371363089
8	5657	937.833656509969	0.094019245936
8	5667	939.466993648113	0.032917413854
8	5672	939.742503551964	0.266047405036
8	5712	951.556500459504	0.181310666698
8	5727	953.723253150778	0.154646359465
8	5737	955.585364339856	0.133893866058
8	5752	956.797863431731	0.002862290555
8	5788	968.582365566973	0.056280280014
8	5805	972.608898995919	0.228487218387
8	5810	972.88440889977	0.47047637008
8	5813	973.159918803621	0.374437683968
8	5823	974.466049459527	0.110946560923
8	5863	980.321342856025	0.024017351322
8	5888	986.452133592675	0.043163371999
8	5903	988.211800126797	0.089522242281
8	5948	993.771068995133	0.122240999083
8	5975	997.219022609663	0.141170401423
8	5980	997.494532513514	0.336910648726
8	5985	997.770042417365	0.472836211013
8	5990	998.045552321216	0.528733872809
8	5993	998.321062225067	0.362323562677

