version 2
run General-348-20240201-11:04:28-40057
attr configname General
attr datetime 20240201-11:04:28
attr experiment General
attr inifile main.ini
attr iterationvars "$0=1.2, $1=3.5, $2=70"
attr iterationvarsf 1.2,3.5,70-
attr measurement "$0=1.2, $1=3.5, $2=70"
attr network Rete
attr processid 40057
attr repetition 8
attr replication #8
attr resultdir results
attr runnumber 348
attr seedset 348
param Rete.lambda 1.2
param Rete.a 0.3s
param Rete.b 3.5s
param Rete.c 0.1s
param Rete.d 0.3s
param Rete.mu 3.0
param Rete.source2.interArrivalTime exponential(1s/lambda)
param Rete.source2.jobServiceTime exponential(1s/mu)
param Rete.source2.deadline uniform(a,b)
param Rete.server2.j 70
param Rete.server2.V uniform(c,d)

vector 0 Rete.passiveQueue queueLength:vector ETV
attr interpolationmode sample-hold
attr title "queue length, vector"
vector 1 Rete.sink lifeTime:vector ETV
attr interpolationmode none
attr title "lifetime of arrived jobs, vector"
attr unit s
vector 2 Rete.sink totalQueueingTime:vector ETV
attr interpolationmode none
attr title "the total time spent in queues by arrived jobs, vector"
attr unit s
vector 3 Rete.sink queuesVisited:vector ETV
attr interpolationmode none
attr title "the total number of queues visited by arrived jobs, vector"
vector 4 Rete.sink totalServiceTime:vector ETV
attr interpolationmode none
attr title "the total time spent  by arrived jobs, vector"
attr unit s
vector 5 Rete.sink totalDelayTime:vector ETV
attr interpolationmode none
attr title "the total time spent in delay nodes by arrived jobs, vector"
attr unit s
vector 6 Rete.sink delaysVisited:vector ETV
attr interpolationmode none
attr title "the total number of delays visited by arrived jobs, vector"
vector 7 Rete.sink generation:vector ETV
attr interpolationmode none
attr title "the generation of the arrived jobs, vector"
vector 8 Rete.passiveQueue queueingTime:vector ETV
attr interpolationmode none
attr title "queueing time at dequeue, vector"
attr unit s
0	0	0	0
0	10	0.718118557262	1
0	11	0.763330129994	0
0	60	10.471717421375	1
0	61	10.631152432353	0
0	70	11.079460541613	1
0	71	11.217082726258	0
0	80	12.633419552018	1
0	82	12.675794855853	2
0	83	12.712451095294	1
0	86	12.874107483457	0
0	100	14.611081621426	1
0	101	14.745973962921	0
0	120	15.727453995688	1
0	122	15.795020032099	2
0	124	15.827395597767	3
0	125	15.86228745825	2
0	128	16.023943846413	1
0	131	16.185600234576	0
0	165	21.840656866082	1
0	166	21.941951272911	0
0	175	22.370401826191	1
0	176	22.410241979381	0
0	180	22.428284786194	1
0	182	22.538627750245	2
0	183	22.571898367544	1
0	186	22.733554755707	0
0	190	22.783179975896	1
0	191	22.89521114387	0
0	195	22.988218748562	1
0	196	23.056867532033	0
0	220	28.798493082404	1
0	221	28.833214835585	0
0	225	28.965866631572	1
0	226	28.994871223748	0
0	305	44.053194937064	1
0	306	44.170944940282	0
0	345	55.174039539414	1
0	346	55.248850031457	0
0	371	57.565005674362	1
0	372	57.656724798121	0
0	391	60.413096072938	1
0	392	60.506711596513	0
0	401	61.635042176783	1
0	402	61.692054167226	0
0	406	61.73277347098	1
0	407	61.853710555389	0
0	411	61.908921311155	1
0	412	62.015366943552	0
0	421	65.825593740956	1
0	422	65.863809066076	0
0	431	66.058498514312	1
0	432	66.198327323434	0
0	436	66.334737059703	1
0	437	66.359983711597	0
0	471	72.767673905877	1
0	472	72.82641021397	0
0	481	73.729091433889	1
0	482	73.730830395714	0
0	496	79.161056675247	1
0	497	79.26904653965	0
0	506	80.106597311836	1
0	508	80.113533112796	2
0	509	80.133989113002	1
0	512	80.295645501165	0
0	516	80.325431834336	1
0	517	80.457301889328	0
0	521	80.527632483397	1
0	522	80.618958277491	0
0	536	81.402593853262	1
0	537	81.557628064461	0
0	581	94.355011226747	1
0	583	94.439947784187	2
0	584	94.47665538637	1
0	587	94.638311774533	0
0	601	96.033021642462	1
0	602	96.067126029449	0
0	606	96.140151676712	1
0	607	96.228782417612	0
0	631	99.38848190627	1
0	632	99.411677820292	0
0	651	102.710195720019	1
0	652	102.739532827583	0
0	696	110.270683852465	1
0	697	110.325569565309	0
0	722	113.102906924836	1
0	723	113.208602411748	0
0	727	113.273477167619	1
0	728	113.370258799911	0
0	757	118.174955634431	1
0	758	118.193556188544	0
0	772	120.130121215937	1
0	773	120.175798476601	0
0	802	123.571036568195	1
0	803	123.597134038846	0
0	837	129.450566555332	1
0	838	129.52724369604	0
0	882	138.436301478464	1
0	883	138.555988632599	0
0	917	144.083651912064	1
0	918	144.143548320584	0
0	922	144.218849147118	1
0	923	144.305204708747	0
0	937	146.510161090244	1
0	938	146.5841181356	0
0	1068	170.088086457935	1
0	1069	170.211148205056	0
0	1083	171.27814335231	1
0	1084	171.368008353631	0
0	1098	172.077316835037	1
0	1099	172.12349464305	0
0	1233	201.215657533069	1
0	1234	201.238017936018	0
0	1273	208.146742438328	1
0	1274	208.289711240593	0
0	1283	208.633430975121	1
0	1284	208.704367204861	0
0	1303	210.710394135615	1
0	1304	210.753283070402	0
0	1323	217.67843439547	1
0	1324	217.83897752937	0
0	1358	221.749881529272	1
0	1360	221.753799666445	2
0	1361	221.803985039462	1
0	1364	221.965641427625	0
0	1424	232.877329037157	1
0	1425	232.963013319593	0
0	1469	238.766141761489	1
0	1470	238.814144295842	0
0	1504	246.769863836867	1
0	1505	246.895374525478	0
0	1539	251.132975081409	1
0	1540	251.2706737863	0
0	1544	251.337528323392	1
0	1545	251.432330174463	0
0	1599	263.396780611497	1
0	1600	263.443265380024	0
0	1624	268.271602696867	1
0	1625	268.305120678752	0
0	1654	273.22331379544	1
0	1655	273.354327936616	0
0	1756	294.741403252106	1
0	1758	294.746745443165	2
0	1760	294.853343551059	3
0	1761	294.939912646527	2
0	1763	295.10156903469	1
0	1766	295.263225422853	0
0	1795	299.575817473074	1
0	1796	299.620625650758	0
0	1845	306.70121898271	1
0	1846	306.85183173723	0
0	1860	309.521099794327	1
0	1861	309.660236297623	0
0	1865	309.666831844665	1
0	1866	309.821892685786	0
0	1870	309.958617840912	1
0	1871	309.983549073949	0
0	1910	318.671937167826	1
0	1911	318.723497037449	0
0	1915	318.774293620789	1
0	1916	318.885153425612	0
0	1925	319.195830858156	1
0	1926	319.211960945666	0
0	1930	319.218919371925	1
0	1931	319.373617333829	0
0	1940	320.037602312084	1
0	1941	320.089912176255	0
0	1980	329.921551078258	1
0	1981	329.936546452344	0
0	2035	342.322433947477	1
0	2036	342.330992379891	0
0	2040	342.347271031414	1
0	2041	342.492648768054	0
0	2050	343.284620929841	1
0	2051	343.43320569654	0
0	2055	343.476432174872	1
0	2056	343.594862084703	0
0	2080	347.23242111482	1
0	2081	347.373798862428	0
0	2085	347.452660344655	1
0	2086	347.535455250591	0
0	2095	349.435485238228	1
0	2096	349.545296624474	0
0	2105	350.914955600625	1
0	2109	350.980121089019	2
0	2110	351.170278725291	1
0	2112	351.331935113454	0
0	2146	358.650772366335	1
0	2147	358.657329324042	0
0	2156	359.378075361548	1
0	2157	359.424111600676	0
0	2171	362.945918342869	1
0	2172	363.083779971052	0
0	2201	367.747957456857	1
0	2202	367.835007120084	0
0	2246	376.142526151982	1
0	2247	376.26910943954	0
0	2251	376.333799423451	1
0	2252	376.430765827703	0
0	2301	385.603071064393	1
0	2302	385.654509191656	0
0	2336	391.94945562605	1
0	2338	391.96563719375	2
0	2339	392.090542989924	1
0	2343	392.159805994457	2
0	2345	392.210111026987	3
0	2346	392.252199378087	2
0	2349	392.41385576625	1
0	2352	392.575512154413	0
0	2386	400.275339543575	1
0	2387	400.365342591176	0
0	2391	400.389648434005	1
0	2393	400.506618106466	2
0	2394	400.526998979339	1
0	2397	400.688655367502	0
0	2411	405.441759730841	1
0	2412	405.566219492804	0
0	2458	413.4468576572	1
0	2459	413.461414514053	0
0	2477	415.824653031187	1
0	2478	415.844606464807	0
0	2482	415.886093633047	1
0	2483	416.00626285297	0
0	2502	419.946399586206	1
0	2503	419.973409903433	0
0	2597	436.541330446511	1
0	2598	436.651034493592	0
0	2602	436.6926002306	1
0	2603	436.812690881755	0
0	2622	440.859601545947	1
0	2623	440.92655273745	0
0	2647	443.955103245279	1
0	2648	444.086542322298	0
0	2707	451.426056831871	1
0	2708	451.530385946152	0
0	2732	459.029248105915	1
0	2733	459.11553429843	0
0	2797	467.653180533833	1
0	2798	467.784414535622	0
0	2818	470.382207469881	1
0	2819	470.45270903765	0
0	2858	475.177932681659	1
0	2859	475.244213850392	0
0	2863	475.255622542423	1
0	2864	475.405870238555	0
0	2868	475.435630641663	1
0	2869	475.567526626718	0
0	2883	476.533982766674	1
0	2884	476.569377555919	0
0	2933	482.926097841152	1
0	2934	482.949764553158	0
0	2993	492.756963535262	1
0	2994	492.878017919796	0
0	3003	494.874869277767	1
0	3004	495.036276083197	0
0	3058	508.198669765919	1
0	3059	508.273217474223	0
0	3063	508.42432278258	1
0	3064	508.434873862386	0
0	3123	522.527270380769	1
0	3124	522.60471739178	0
0	3138	525.001206039936	1
0	3139	525.160041712683	0
0	3148	526.906879304078	1
0	3149	527.042505706208	0
0	3153	527.115456629697	1
0	3154	527.204162094371	0
0	3179	531.889422403715	1
0	3180	531.957531907941	0
0	3194	533.453013160848	1
0	3195	533.613050536393	0
0	3204	534.509851648844	1
0	3205	534.557995322858	0
0	3249	541.584160164349	1
0	3250	541.6791189468	0
0	3259	543.017405423935	1
0	3260	543.169494879048	0
0	3299	547.911719778219	1
0	3300	548.014467988831	0
0	3319	554.754490440356	1
0	3320	554.882655812896	0
0	3359	558.267035329407	1
0	3360	558.37035561544	0
0	3364	558.497150328856	1
0	3365	558.532012003603	0
0	3374	559.234521283875	1
0	3375	559.293832533879	0
0	3384	560.706821903453	1
0	3386	560.711086589969	2
0	3387	560.784565195452	1
0	3390	560.946221583615	0
0	3394	560.958562297463	1
0	3395	561.107877971778	0
0	3414	564.224764033237	1
0	3415	564.265368816612	0
0	3585	596.464912304297	1
0	3586	596.556533107806	0
0	3590	596.691026372793	1
0	3591	596.718189495969	0
0	3670	610.153956177341	1
0	3671	610.160311146275	0
0	3700	619.684701877498	1
0	3701	619.804747300805	0
0	3740	628.037790983656	1
0	3742	628.087500567899	2
0	3743	628.179217716157	1
0	3746	628.34087410432	0
0	3770	630.478752947399	1
0	3771	630.521250992251	0
0	3835	640.459502173071	1
0	3836	640.575790572902	0
0	3936	659.750987197137	1
0	3937	659.869173953883	0
0	3956	662.80328552882	1
0	3957	662.843952867236	0
0	3996	668.670505431195	1
0	3997	668.807720272933	0
0	4031	676.351404448301	1
0	4032	676.430685642709	0
0	4116	691.376924066843	1
0	4117	691.513624943014	0
0	4171	700.508146841687	1
0	4172	700.614671058384	0
0	4181	704.231814948864	1
0	4182	704.270650711414	0
0	4213	708.234160090686	1
0	4215	708.247865495162	2
0	4216	708.27847467835	1
0	4218	708.440131066513	0
0	4222	708.500001379929	1
0	4223	708.601787454676	0
0	4227	708.603796518856	1
0	4228	708.763443842839	0
0	4242	710.575980170194	1
0	4244	710.587845739583	2
0	4245	710.720134924576	1
0	4248	710.881791312739	0
0	4287	719.593491900723	1
0	4288	719.737822098491	0
0	4332	726.434785687006	1
0	4333	726.576936238922	0
0	4362	733.0035628496	1
0	4364	733.049572267889	2
0	4365	733.141652354186	1
0	4368	733.303308742349	0
0	4422	743.279041922457	1
0	4423	743.388767581005	0
0	4442	745.539845072737	1
0	4443	745.682955268921	0
0	4472	752.162799431439	1
0	4473	752.241868355854	0
0	4542	766.966325330978	1
0	4543	767.076739695997	0
0	4547	767.175814844644	1
0	4548	767.23839608416	0
0	4552	767.253142626306	1
0	4553	767.400052472323	0
0	4557	767.559939541305	1
0	4558	767.561708860486	0
0	4573	768.287404670379	1
0	4575	768.303712675232	2
0	4576	768.429335128491	1
0	4579	768.590991516654	0
0	4663	789.760404404097	1
0	4665	789.811317065365	2
0	4666	789.83671124362	1
0	4669	789.998367631783	0
0	4693	792.940350396983	1
0	4694	793.082201594655	0
0	4708	795.763062632156	1
0	4710	795.76724316959	2
0	4711	795.832081092061	1
0	4714	795.993737480224	0
0	4873	825.721667466768	1
0	4874	825.816584237904	0
0	4915	834.264692853469	1
0	4916	834.386362215172	0
0	4929	835.687495157101	1
0	4930	835.729034211196	0
0	4934	835.793754587816	1
0	4935	835.890690599359	0
0	4969	842.493913180882	1
0	4970	842.509653156283	0
0	4994	848.277164102044	1
0	4995	848.323395788489	0
0	5004	850.996830932414	1
0	5005	851.053718802458	0
0	5054	860.777582596258	1
0	5055	860.82638944241	0
0	5129	873.768650632474	1
0	5130	873.852589457633	0
0	5159	883.412891234619	1
0	5160	883.552638669689	0
0	5169	885.091430369648	1
0	5170	885.121531282133	0
0	5184	885.689401508173	1
0	5185	885.851050595705	0
0	5229	895.442701034099	1
0	5230	895.53771508837	0
0	5315	913.498381201719	1
0	5316	913.639312921434	0
0	5340	916.629184775248	1
0	5341	916.646438326657	0
0	5360	921.086324347761	1
0	5361	921.16728890853	0
0	5365	921.201223602	1
0	5366	921.328945296693	0
0	5370	921.415391939777	1
0	5371	921.490601684856	0
0	5375	921.599212728848	1
0	5376	921.652258073019	0
0	5405	927.408333704368	1
0	5406	927.467136917364	0
0	5540	957.366495895442	1
0	5541	957.40512128408	0
0	5580	963.700228403147	1
0	5581	963.766559588519	0
0	5610	967.748130874442	1
0	5611	967.849561781201	0
0	5621	970.181593100498	1
0	5622	970.288798059538	0
0	5681	984.001535224775	1
0	5682	984.084094729032	0
0	5686	984.113270088988	1
0	5687	984.245751117195	0
0	5711	988.644493489902	1
0	5712	988.760610487981	0
0	5761	998.515724200315	1
0	5762	998.630227258577	0
1	5	0.427184078566	0.161656388163
1	12	0.763330129994	0.161656388163
1	15	0.924986518157	0.206867960895
1	20	3.908349311808	0.161656388163
1	25	4.218941445409	0.161656388163
1	30	4.71156066862	0.161656388163
1	35	5.887323201244	0.161656388163
1	40	7.088261747501	0.161656388163
1	45	7.973473675772	0.161656388163
1	50	8.676984864511	0.161656388163
1	55	9.298370467014	0.161656388163
1	62	10.631152432353	0.161656388163
1	65	10.792808820516	0.321091399141
1	72	11.217082726258	0.161656388163
1	75	11.378739114421	0.299278572808
1	84	12.712451095294	0.161656388163
1	87	12.874107483457	0.240687931439
1	90	13.03576387162	0.359969015767
1	95	13.854466889563	0.161656388163
1	102	14.745973962921	0.161656388163
1	105	14.907630351084	0.296548729658
1	110	15.1312198597	0.161656388163
1	115	15.679124277934	0.161656388163
1	126	15.86228745825	0.161656388163
1	129	16.023943846413	0.296489850725
1	132	16.185600234576	0.390580202477
1	135	16.347256622739	0.519861024972
1	140	17.26445895168	0.161656388163
1	145	18.577815247935	0.161656388163
1	150	18.996806028294	0.161656388163
1	155	20.30408066246	0.161656388163
1	160	21.215611863186	0.161656388163
1	167	21.941951272911	0.161656388163
1	170	22.103607661074	0.262950794992
1	177	22.410241979381	0.161656388163
1	184	22.571898367544	0.201496541353
1	187	22.733554755707	0.305269969513
1	192	22.89521114387	0.356583393625
1	197	23.056867532033	0.273687556137
1	200	23.218523920196	0.230305171634
1	205	24.013800559432	0.161656388163
1	210	25.45502310611	0.161656388163
1	215	26.879359302534	0.161656388163
1	222	28.833214835585	0.161656388163
1	227	28.994871223748	0.196378141344
1	230	29.156527611911	0.190660980339
1	235	30.516867853155	0.161656388163
1	240	30.962922055508	0.161656388163
1	245	33.088742221475	0.161656388163
1	250	34.323574840364	0.161656388163
1	255	35.617142295148	0.161656388163
1	260	35.800806637855	0.161656388163
1	265	37.451054333438	0.161656388163
1	270	37.77929578697	0.161656388163
1	275	38.548088408163	0.161656388163
1	280	39.283838633009	0.161656388163
1	285	40.98220767434	0.161656388163
1	290	41.194243250801	0.161656388163
1	295	41.363778275085	0.161656388163
1	300	43.671561340236	0.161656388163
1	307	44.170944940282	0.161656388163
1	310	44.332601328445	0.279406391381
1	315	45.210962401676	0.161656388163
1	320	48.158821988088	0.161656388163
1	325	48.421706926297	0.161656388163
1	330	51.500979656032	0.161656388163
1	335	52.189762593712	0.161656388163
1	340	54.23249236626	0.161656388163
1	347	55.248850031457	0.161656388163
1	350	55.41050641962	0.236466880206
1	356	56.13682570914	0.161656388163
1	361	57.076602983018	0.161656388163
1	366	57.438265403311	0.161656388163
1	373	57.656724798121	0.161656388163
1	376	57.818381186284	0.253375511922
1	381	58.572943488031	0.161656388163
1	386	59.302148337014	0.161656388163
1	393	60.506711596513	0.161656388163
1	396	60.668367984676	0.255271911738
1	403	61.692054167226	0.161656388163
1	408	61.853710555389	0.218668378606
1	413	62.015366943552	0.282593472572
1	416	62.177023331715	0.26810202056
1	423	65.863809066076	0.161656388163
1	426	66.025465454239	0.199871713283
1	433	66.198327323434	0.161656388163
1	438	66.359983711597	0.301485197285
1	441	66.52164009976	0.186903040057
1	446	67.639982121574	0.161656388163
1	451	68.566941487398	0.161656388163
1	456	69.696703911461	0.161656388163
1	461	71.275951905426	0.161656388163
1	466	72.031746360762	0.161656388163
1	473	72.82641021397	0.161656388163
1	476	72.988066602133	0.220392696256
1	483	73.730830395714	0.161656388163
1	486	73.892486783877	0.163395349988
1	491	78.10373948878	0.161656388163
1	498	79.26904653965	0.161656388163
1	501	79.430702927813	0.269646252566
1	510	80.133989113002	0.161656388163
1	513	80.295645501165	0.189048189329
1	518	80.457301889328	0.343768776532
1	523	80.618958277491	0.293526443155
1	526	80.780614665654	0.252982182257
1	531	81.049171320401	0.161656388163
1	538	81.557628064461	0.161656388163
1	541	81.719284452624	0.316690599362
1	546	86.662378195633	0.161656388163
1	551	86.93994458404	0.161656388163
1	556	87.114692457114	0.161656388163
1	561	91.72238752156	0.161656388163
1	566	92.832087203251	0.161656388163
1	571	93.646484592788	0.161656388163
1	576	94.165634634753	0.161656388163
1	585	94.47665538637	0.161656388163
1	588	94.638311774533	0.283300547786
1	591	94.799968162696	0.360020378509
1	596	95.794809874781	0.161656388163
1	603	96.067126029449	0.161656388163
1	608	96.228782417612	0.19576077515
1	611	96.390438805775	0.250287129063
1	616	96.61665026343	0.161656388163
1	621	96.897244673198	0.161656388163
1	626	97.651325579663	0.161656388163
1	633	99.411677820292	0.161656388163
1	636	99.573334208455	0.184852302185
1	641	100.553773243686	0.161656388163
1	646	102.236430493109	0.161656388163
1	653	102.739532827583	0.161656388163
1	656	102.901189215746	0.190993495727
1	661	103.887716487998	0.161656388163
1	666	105.490250738814	0.161656388163
1	671	106.404883888052	0.161656388163
1	676	106.711704231939	0.161656388163
1	681	108.117961275248	0.161656388163
1	686	108.87467846223	0.161656388163
1	691	109.396867560923	0.161656388163
1	698	110.325569565309	0.161656388163
1	701	110.487225953472	0.216542101007
1	707	111.606595354165	0.161656388163
1	712	112.233313784442	0.161656388163
1	717	112.553238360387	0.161656388163
1	724	113.208602411748	0.161656388163
1	729	113.370258799911	0.267351875075
1	732	113.531915188074	0.258438020455
1	737	114.159286305244	0.161656388163
1	742	117.155965960092	0.161656388163
1	747	117.409476166793	0.161656388163
1	752	117.702529524181	0.161656388163
1	759	118.193556188544	0.161656388163
1	762	118.355212576707	0.180256942276
1	767	119.895454558372	0.161656388163
1	774	120.175798476601	0.161656388163
1	777	120.337454864764	0.207333648827
1	782	120.850420762831	0.161656388163
1	787	121.771018228321	0.161656388163
1	792	121.933799746857	0.161656388163
1	797	122.583932371891	0.161656388163
1	804	123.597134038846	0.161656388163
1	807	123.758790427009	0.187753858814
1	812	124.685894641335	0.161656388163
1	817	126.662132950146	0.161656388163
1	822	127.385292328253	0.161656388163
1	827	128.402167768934	0.161656388163
1	832	129.24880209787	0.161656388163
1	839	129.52724369604	0.161656388163
1	842	129.688900084203	0.238333528871
1	847	130.31980087201	0.161656388163
1	852	130.517721192484	0.161656388163
1	857	131.414879078538	0.161656388163
1	862	132.958843588749	0.161656388163
1	867	133.493599431693	0.161656388163
1	872	135.943897769817	0.161656388163
1	877	137.697929839879	0.161656388163
1	884	138.555988632599	0.161656388163
1	887	138.717645020762	0.281343542298
1	892	139.862094806985	0.161656388163
1	897	141.644563756975	0.161656388163
1	902	142.768843820656	0.161656388163
1	907	143.471004243983	0.161656388163
1	912	143.708854106427	0.161656388163
1	919	144.143548320584	0.161656388163
1	924	144.305204708747	0.221552796683
1	927	144.46686109691	0.248011949792
1	932	144.989822167744	0.161656388163
1	939	146.5841181356	0.161656388163
1	942	146.745774523763	0.235613433519
1	947	149.256413395317	0.161656388163
1	952	150.348422316646	0.161656388163
1	957	152.335642134205	0.161656388163
1	962	153.511193375837	0.161656388163
1	967	154.455337568249	0.161656388163
1	972	155.106673261864	0.161656388163
1	977	155.569084089792	0.161656388163
1	982	155.804207988566	0.161656388163
1	987	157.333646648008	0.161656388163
1	992	157.861695822452	0.161656388163
1	997	158.507298656112	0.161656388163
1	1002	159.318575965148	0.161656388163
1	1007	160.031139862252	0.161656388163
1	1012	161.270233922195	0.161656388163
1	1017	161.519270857052	0.161656388163
1	1022	161.765599428501	0.161656388163
1	1027	162.049711449672	0.161656388163
1	1032	163.369209850073	0.161656388163
1	1037	164.147800162409	0.161656388163
1	1042	164.335018534358	0.161656388163
1	1047	165.847486642695	0.161656388163
1	1052	166.009214538883	0.161656388163
1	1058	166.618674015506	0.161656388163
1	1063	169.443836452079	0.161656388163
1	1070	170.211148205056	0.161656388163
1	1073	170.372804593219	0.284718135284
1	1078	170.626255881614	0.161656388163
1	1085	171.368008353631	0.161656388163
1	1088	171.529664741794	0.251521389484
1	1093	171.701353635631	0.161656388163
1	1100	172.12349464305	0.161656388163
1	1103	172.285151031213	0.207834196176
1	1108	172.653143067396	0.161656388163
1	1113	172.841809389974	0.161656388163
1	1118	173.276793988353	0.161656388163
1	1123	177.349887587413	0.161656388163
1	1128	177.556955806992	0.161656388163
1	1133	179.789618521407	0.161656388163
1	1138	180.14607807679	0.161656388163
1	1143	180.333210948997	0.161656388163
1	1148	182.068586530282	0.161656388163
1	1153	186.023827592612	0.161656388163
1	1158	188.086160288359	0.161656388163
1	1163	188.73850928558	0.161656388163
1	1168	189.475870957811	0.161656388163
1	1173	189.990661936853	0.161656388163
1	1178	190.353789745097	0.161656388163
1	1183	190.615107935948	0.161656388163
1	1188	190.787858597435	0.161656388163
1	1193	191.927119214338	0.161656388163
1	1198	192.42424470103	0.161656388163
1	1203	192.739681584774	0.161656388163
1	1208	193.214419914262	0.161656388163
1	1213	193.564418704435	0.161656388163
1	1218	195.005979768397	0.161656388163
1	1223	196.928572620365	0.161656388163
1	1228	197.352777670487	0.161656388163
1	1235	201.238017936018	0.161656388163
1	1238	201.399674324181	0.184016791112
1	1243	203.722231879676	0.161656388163
1	1248	205.054418465185	0.161656388163
1	1253	206.666000139887	0.161656388163
1	1258	207.051703113305	0.161656388163
1	1263	207.719057307071	0.161656388163
1	1268	207.938643422927	0.161656388163
1	1275	208.289711240593	0.161656388163
1	1278	208.451367628756	0.304625190428
1	1285	208.704367204861	0.161656388163
1	1288	208.866023593024	0.232592617903
1	1293	210.10339723644	0.161656388163
1	1298	210.443396325242	0.161656388163
1	1305	210.753283070402	0.161656388163
1	1308	210.914939458565	0.20454532295
1	1313	212.303504378765	0.161656388163
1	1318	213.604501240304	0.161656388163
1	1325	217.83897752937	0.161656388163
1	1328	218.000633917533	0.322199522063
1	1333	218.910348179666	0.161656388163
1	1338	219.496500704502	0.161656388163
1	1343	219.852323498872	0.161656388163
1	1348	220.077950618699	0.161656388163
1	1353	220.707467093894	0.161656388163
1	1362	221.803985039462	0.161656388163
1	1365	221.965641427625	0.215759898353
1	1368	222.127297815788	0.373498149343
1	1373	222.858034554687	0.161656388163
1	1378	223.405716252494	0.161656388163
1	1383	223.79383560917	0.161656388163
1	1388	224.905879449599	0.161656388163
1	1393	229.698176839968	0.161656388163
1	1398	229.957529765447	0.161656388163
1	1403	231.064078027596	0.161656388163
1	1409	231.714301892154	0.161656388163
1	1414	232.496177641563	0.161656388163
1	1419	232.772785885778	0.161656388163
1	1426	232.963013319593	0.161656388163
1	1429	233.124669707756	0.247340670599
1	1434	233.788441258809	0.161656388163
1	1439	234.436982781961	0.161656388163
1	1444	235.570807749979	0.161656388163
1	1449	235.973066938144	0.161656388163
1	1454	236.7199724915	0.161656388163
1	1459	237.396357982753	0.161656388163
1	1464	238.273055884906	0.161656388163
1	1471	238.814144295842	0.161656388163
1	1474	238.975800684005	0.209658922516
1	1479	241.366303684012	0.161656388163
1	1484	242.14960846929	0.161656388163
1	1489	242.913252646944	0.161656388163
1	1494	244.638782642714	0.161656388163
1	1499	245.201910693325	0.161656388163
1	1506	246.895374525478	0.161656388163
1	1509	247.057030913641	0.287167076774
1	1514	247.386447186934	0.161656388163
1	1519	247.688794809864	0.161656388163
1	1524	249.633377627199	0.161656388163
1	1529	250.22977022344	0.161656388163
1	1534	250.742397109682	0.161656388163
1	1541	251.2706737863	0.161656388163
1	1546	251.432330174463	0.299355093054
1	1549	251.593986562626	0.256458239234
1	1554	253.197278077444	0.161656388163
1	1559	254.342952014739	0.161656388163
1	1564	254.90271842335	0.161656388163
1	1569	255.246094046036	0.161656388163
1	1574	255.683422869976	0.161656388163
1	1579	257.073594199422	0.161656388163
1	1584	257.644769630025	0.161656388163
1	1589	260.936377504938	0.161656388163
1	1594	263.196299108668	0.161656388163
1	1601	263.443265380024	0.161656388163
1	1604	263.604921768187	0.20814115669
1	1609	264.121613307801	0.161656388163
1	1614	264.7636222861	0.161656388163
1	1619	265.169705036037	0.161656388163
1	1626	268.305120678752	0.161656388163
1	1629	268.466777066915	0.195174370048
1	1634	268.998599389354	0.161656388163
1	1639	271.592350586798	0.161656388163
1	1644	272.345344354645	0.161656388163
1	1649	272.741719422743	0.161656388163
1	1656	273.354327936616	0.161656388163
1	1659	273.515984324779	0.292670529339
1	1664	274.196950989828	0.161656388163
1	1669	274.804258949966	0.161656388163
1	1674	275.461241518449	0.161656388163
1	1679	278.278673855739	0.161656388163
1	1684	278.710994113783	0.161656388163
1	1689	279.440070265749	0.161656388163
1	1694	279.790666333739	0.161656388163
1	1699	281.173049704261	0.161656388163
1	1704	282.533641222339	0.161656388163
1	1709	284.351404250931	0.161656388163
1	1714	284.701505975101	0.161656388163
1	1719	285.765472335855	0.161656388163
1	1724	286.383904797628	0.161656388163
1	1729	287.491686142893	0.161656388163
1	1734	290.79250479422	0.161656388163
1	1739	291.483801172127	0.161656388163
1	1744	293.150642099703	0.161656388163
1	1749	294.288533329499	0.161656388163
1	1754	294.741225321621	0.161656388163
1	1764	295.10156903469	0.360165782584
1	1767	295.263225422853	0.516479979688
1	1770	295.424881811016	0.571538259957
1	1775	295.862969403095	0.161656388163
1	1780	296.16809548924	0.161656388163
1	1785	296.952982528053	0.161656388163
1	1790	299.409478185024	0.161656388163
1	1797	299.620625650758	0.161656388163
1	1800	299.782282038921	0.206464565847
1	1805	300.11388526316	0.161656388163
1	1810	300.721742103589	0.161656388163
1	1815	301.51396958797	0.161656388163
1	1820	302.146146194417	0.161656388163
1	1825	303.75856021101	0.161656388163
1	1830	304.631699280114	0.161656388163
1	1835	305.431229013086	0.161656388163
1	1840	306.004261056915	0.161656388163
1	1847	306.85183173723	0.161656388163
1	1850	307.013488125393	0.312269142683
1	1855	308.039045233959	0.161656388163
1	1862	309.660236297623	0.161656388163
1	1867	309.821892685786	0.300792891459
1	1872	309.983549073949	0.316717229284
1	1875	310.145205462112	0.1865876212
1	1880	312.371040995738	0.161656388163
1	1885	312.913509837356	0.161656388163
1	1890	314.484888852658	0.161656388163
1	1895	316.893740678624	0.161656388163
1	1900	317.087661801015	0.161656388163
1	1905	317.750094846422	0.161656388163
1	1912	318.723497037449	0.161656388163
1	1917	318.885153425612	0.213216257786
1	1920	319.046809813775	0.272516192986
1	1927	319.211960945666	0.161656388163
1	1932	319.373617333829	0.177786475673
1	1935	319.535273721992	0.316354350067
1	1942	320.089912176255	0.161656388163
1	1945	320.251568564418	0.213966252334
1	1950	322.121737811032	0.161656388163
1	1955	323.197711162828	0.161656388163
1	1960	325.516636345402	0.161656388163
1	1965	326.135538746474	0.161656388163
1	1970	328.4932585346	0.161656388163
1	1975	329.599225116609	0.161656388163
1	1982	329.936546452344	0.161656388163
1	1985	330.098202840507	0.176651762249
1	1990	330.74001532265	0.161656388163
1	1995	332.299945764659	0.161656388163
1	2000	333.682046478212	0.161656388163
1	2005	334.285402338047	0.161656388163
1	2010	337.856798697294	0.161656388163
1	2015	338.988391732563	0.161656388163
1	2020	340.290286115865	0.161656388163
1	2025	340.702033328644	0.161656388163
1	2030	341.928518055951	0.161656388163
1	2037	342.330992379891	0.161656388163
1	2042	342.492648768054	0.170214820577
1	2045	342.654305156217	0.307034124803
1	2052	343.43320569654	0.161656388163
1	2057	343.594862084703	0.310241154862
1	2060	343.756518472866	0.280086297994
1	2065	344.861080249563	0.161656388163
1	2070	345.867956585915	0.161656388163
1	2075	346.423199500815	0.161656388163
1	2082	347.373798862428	0.161656388163
1	2087	347.535455250591	0.303034135771
1	2090	347.697111638754	0.244451294099
1	2097	349.545296624474	0.161656388163
1	2100	349.706953012637	0.271467774409
1	2107	350.971591400385	0.161656388163
1	2113	351.331935113454	0.416979512829
1	2116	351.493591501617	0.513470412598
1	2121	355.368248292751	0.161656388163
1	2126	355.711809266299	0.161656388163
1	2131	355.988719437694	0.161656388163
1	2136	357.057832435322	0.161656388163
1	2141	357.51097897132	0.161656388163
1	2148	358.657329324042	0.161656388163
1	2151	358.818985712205	0.16821334587
1	2158	359.424111600676	0.161656388163
1	2161	359.585767988839	0.207692627291
1	2166	361.124450818177	0.161656388163
1	2173	363.083779971052	0.161656388163
1	2176	363.245436359215	0.299518016346
1	2181	365.17912979435	0.161656388163
1	2186	366.014095696619	0.161656388163
1	2191	366.676375269697	0.161656388163
1	2196	367.086580525197	0.161656388163
1	2203	367.835007120084	0.161656388163
1	2206	367.996663508247	0.24870605139
1	2211	368.414472827205	0.161656388163
1	2216	369.273689707684	0.161656388163
1	2221	372.173568982601	0.161656388163
1	2226	373.280092731712	0.161656388163
1	2231	373.854880079574	0.161656388163
1	2236	374.45375968622	0.161656388163
1	2241	376.040863583882	0.161656388163
1	2248	376.26910943954	0.161656388163
1	2253	376.430765827703	0.288239675721
1	2256	376.592422215866	0.258622792415
1	2261	379.195508122778	0.161656388163
1	2266	379.37894239924	0.161656388163
1	2271	380.515937438679	0.161656388163
1	2276	381.70772530115	0.161656388163
1	2281	381.89417742282	0.161656388163
1	2286	383.990246516007	0.161656388163
1	2291	384.880929899537	0.161656388163
1	2296	385.210773117566	0.161656388163
1	2303	385.654509191656	0.161656388163
1	2306	385.816165579819	0.213094515426
1	2311	388.556293698353	0.161656388163
1	2316	389.321287486383	0.161656388163
1	2321	389.535673079626	0.161656388163
1	2326	390.164315620187	0.161656388163
1	2331	391.650949209315	0.161656388163
1	2340	392.090542989924	0.161656388163
1	2347	392.252199378087	0.302743752037
1	2350	392.41385576625	0.4482185725
1	2353	392.575512154413	0.415706159956
1	2356	392.737168542576	0.527057515589
1	2361	393.527767530782	0.161656388163
1	2366	393.879131799188	0.161656388163
1	2371	395.3754320048	0.161656388163
1	2376	397.410850306996	0.161656388163
1	2381	399.699514365591	0.161656388163
1	2388	400.365342591176	0.161656388163
1	2395	400.526998979339	0.251659435764
1	2398	400.688655367502	0.299006933497
1	2401	400.850311755665	0.343693649199
1	2406	403.266915405392	0.161656388163
1	2413	405.566219492804	0.161656388163
1	2416	405.727875880967	0.286116150126
1	2421	406.037541015848	0.161656388163
1	2426	406.73241094661	0.161656388163
1	2431	407.861567203597	0.161656388163
1	2436	408.180072140142	0.161656388163
1	2441	410.972094547261	0.161656388163
1	2446	411.259385029718	0.161656388163
1	2451	412.855355842276	0.161656388163
1	2456	413.262727189147	0.161656388163
1	2462	413.623070902216	0.176213245016
1	2467	414.154703459047	0.161656388163
1	2472	415.561772247687	0.161656388163
1	2479	415.844606464807	0.161656388163
1	2484	416.00626285297	0.181609821783
1	2487	416.167919241133	0.281825608086
1	2492	417.198168549778	0.161656388163
1	2497	418.540992316616	0.161656388163
1	2504	419.973409903433	0.161656388163
1	2507	420.135066291596	0.18866670539
1	2512	420.582614833208	0.161656388163
1	2517	421.750497527411	0.161656388163
1	2522	422.271529435547	0.161656388163
1	2527	422.654606544077	0.161656388163
1	2532	423.68561252798	0.161656388163
1	2537	424.439431022279	0.161656388163
1	2542	425.384644231145	0.161656388163
1	2547	425.606225067021	0.161656388163
1	2552	427.353023970366	0.161656388163
1	2557	429.146668582939	0.161656388163
1	2562	431.949275030861	0.161656388163
1	2567	432.753734865447	0.161656388163
1	2572	433.062732449853	0.161656388163
1	2577	434.898600331241	0.161656388163
1	2582	435.240179679569	0.161656388163
1	2587	435.94774857135	0.161656388163
1	2592	436.19383394743	0.161656388163
1	2599	436.651034493592	0.161656388163
1	2604	436.812690881755	0.271360435244
1	2607	436.974347269918	0.281747039318
1	2612	438.164240088645	0.161656388163
1	2617	438.36074404434	0.161656388163
1	2624	440.92655273745	0.161656388163
1	2627	441.088209125613	0.228607579666
1	2632	441.750583881987	0.161656388163
1	2637	443.341873174464	0.161656388163
1	2642	443.791522461953	0.161656388163
1	2649	444.086542322298	0.161656388163
1	2652	444.248198710461	0.293095465182
1	2657	444.413973038912	0.161656388163
1	2662	444.671343659872	0.161656388163
1	2667	444.873336007245	0.161656388163
1	2672	445.812102111756	0.161656388163
1	2677	446.683698509255	0.161656388163
1	2682	447.180273168297	0.161656388163
1	2687	447.428995783852	0.161656388163
1	2692	449.204138111265	0.161656388163
1	2697	450.664417613541	0.161656388163
1	2702	450.830999556506	0.161656388163
1	2709	451.530385946152	0.161656388163
1	2712	451.692042334315	0.265985502444
1	2717	452.397255736787	0.161656388163
1	2722	454.236162710138	0.161656388163
1	2727	455.295839446941	0.161656388163
1	2734	459.11553429843	0.161656388163
1	2737	459.277190686593	0.247942580678
1	2742	459.72728949455	0.161656388163
1	2747	460.71860092137	0.161656388163
1	2752	461.2750433594	0.161656388163
1	2757	462.102734830917	0.161656388163
1	2762	462.714034892982	0.161656388163
1	2767	463.091038605473	0.161656388163
1	2772	463.746659975137	0.161656388163
1	2777	464.394090656299	0.161656388163
1	2782	465.453412532761	0.161656388163
1	2787	465.649923273797	0.161656388163
1	2792	467.49879409144	0.161656388163
1	2799	467.784414535622	0.161656388163
1	2802	467.946070923785	0.292890389952
1	2807	469.311081849465	0.161656388163
1	2813	469.783416218363	0.161656388163
1	2820	470.45270903765	0.161656388163
1	2823	470.614365425813	0.232157955932
1	2828	471.041076981942	0.161656388163
1	2833	471.536379084561	0.161656388163
1	2838	473.076778755429	0.161656388163
1	2843	473.400281847143	0.161656388163
1	2848	473.953649613771	0.161656388163
1	2853	474.832313648125	0.161656388163
1	2860	475.244213850392	0.161656388163
1	2865	475.405870238555	0.227937556896
1	2870	475.567526626718	0.311904084295
1	2873	475.729183014881	0.293552373218
1	2878	476.295447582642	0.161656388163
1	2885	476.569377555919	0.161656388163
1	2888	476.731033944082	0.197051177408
1	2893	477.046576729703	0.161656388163
1	2898	477.349766112422	0.161656388163
1	2903	477.925629843001	0.161656388163
1	2908	479.638742134782	0.161656388163
1	2913	480.348618290713	0.161656388163
1	2918	480.650545877544	0.161656388163
1	2923	481.154775177217	0.161656388163
1	2928	481.40850281194	0.161656388163
1	2935	482.949764553158	0.161656388163
1	2938	483.111420941321	0.185323100169
1	2943	483.530457178706	0.161656388163
1	2948	485.006272380769	0.161656388163
1	2953	485.709144840176	0.161656388163
1	2958	486.698673270278	0.161656388163
1	2963	486.942499881444	0.161656388163
1	2968	487.75389163578	0.161656388163
1	2973	487.996767798468	0.161656388163
1	2978	488.709460922999	0.161656388163
1	2983	490.582075818814	0.161656388163
1	2988	492.257011310674	0.161656388163
1	2995	492.878017919796	0.161656388163
1	2998	493.039674307959	0.282710772697
1	3005	495.036276083197	0.161656388163
1	3008	495.19793247136	0.323063193593
1	3013	496.45175452136	0.161656388163
1	3018	496.897967405143	0.161656388163
1	3023	498.009718863185	0.161656388163
1	3028	500.69817604494	0.161656388163
1	3033	503.494846464099	0.161656388163
1	3038	504.830967473904	0.161656388163
1	3043	505.402065101287	0.161656388163
1	3048	506.276180316924	0.161656388163
1	3053	507.512724952093	0.161656388163
1	3060	508.273217474223	0.161656388163
1	3065	508.434873862386	0.236204096467
1	3068	508.596530250549	0.172207467969
1	3073	511.050901661894	0.161656388163
1	3078	513.476638684401	0.161656388163
1	3083	513.748275411756	0.161656388163
1	3088	517.571797511852	0.161656388163
1	3093	518.411051114325	0.161656388163
1	3098	518.649819319822	0.161656388163
1	3103	519.795885115337	0.161656388163
1	3108	520.142500370887	0.161656388163
1	3113	521.036132675394	0.161656388163
1	3118	521.866033758174	0.161656388163
1	3125	522.60471739178	0.161656388163
1	3128	522.766373779943	0.239103399174
1	3133	524.96570989849	0.161656388163
1	3140	525.160041712683	0.161656388163
1	3143	525.321698100846	0.32049206091
1	3150	527.042505706208	0.161656388163
1	3155	527.204162094371	0.297282790293
1	3158	527.365818482534	0.250361852837
1	3164	529.606285289781	0.161656388163
1	3169	530.36537563347	0.161656388163
1	3174	531.036715611853	0.161656388163
1	3181	531.957531907941	0.161656388163
1	3184	532.119188296104	0.229765892389
1	3189	532.839857492814	0.161656388163
1	3196	533.613050536393	0.161656388163
1	3199	533.774706924556	0.321693763708
1	3206	534.557995322858	0.161656388163
1	3209	534.719651711021	0.209800062177
1	3214	535.440207128869	0.161656388163
1	3219	537.395841054581	0.161656388163
1	3224	537.687172955727	0.161656388163
1	3229	537.936112663591	0.161656388163
1	3234	540.045143100897	0.161656388163
1	3239	540.459019912971	0.161656388163
1	3244	541.464373022575	0.161656388163
1	3251	541.6791189468	0.161656388163
1	3254	541.840775334963	0.256615170614
1	3261	543.169494879048	0.161656388163
1	3264	543.331151267211	0.313745843276
1	3269	544.676003894701	0.161656388163
1	3274	545.353496981776	0.161656388163
1	3279	545.772857038526	0.161656388163
1	3284	546.618203804955	0.161656388163
1	3289	546.975468078682	0.161656388163
1	3294	547.326670234005	0.161656388163
1	3301	548.014467988831	0.161656388163
1	3304	548.176124376994	0.264404598775
1	3309	553.029348940794	0.161656388163
1	3314	554.391353968948	0.161656388163
1	3321	554.882655812896	0.161656388163
1	3324	555.044312201059	0.289821760703
1	3329	555.448152517748	0.161656388163
1	3334	555.736031469788	0.161656388163
1	3339	556.003089478879	0.161656388163
1	3344	556.546994387115	0.161656388163
1	3349	556.75168217488	0.161656388163
1	3354	557.231601705774	0.161656388163
1	3361	558.37035561544	0.161656388163
1	3366	558.532012003603	0.264976674196
1	3369	558.693668391766	0.19651806291
1	3376	559.293832533879	0.161656388163
1	3379	559.455488922042	0.220967638167
1	3388	560.784565195452	0.161656388163
1	3391	560.946221583615	0.239399680162
1	3396	561.107877971778	0.396791381809
1	3399	561.269534359941	0.310972062478
1	3404	561.53817895914	0.161656388163
1	3409	563.840696593287	0.161656388163
1	3416	564.265368816612	0.161656388163
1	3419	564.427025204775	0.202261171538
1	3424	564.972413251248	0.161656388163
1	3429	565.425325727652	0.161656388163
1	3434	566.21294874982	0.161656388163
1	3439	566.451880010248	0.161656388163
1	3444	567.761074598502	0.161656388163
1	3449	568.022564534053	0.161656388163
1	3454	569.359559487946	0.161656388163
1	3459	570.673511134016	0.161656388163
1	3464	571.304306572105	0.161656388163
1	3469	571.736598902707	0.161656388163
1	3474	572.919033733341	0.161656388163
1	3479	575.044999956982	0.161656388163
1	3484	576.065276662227	0.161656388163
1	3489	576.444759366689	0.161656388163
1	3494	578.742244338319	0.161656388163
1	3499	579.645189124	0.161656388163
1	3504	580.676636531051	0.161656388163
1	3509	582.027987605711	0.161656388163
1	3515	583.794353462574	0.161656388163
1	3520	584.241963848857	0.161656388163
1	3525	584.459114774033	0.161656388163
1	3530	586.775543901018	0.161656388163
1	3535	587.47656925017	0.161656388163
1	3540	589.439809435439	0.161656388163
1	3545	589.839091775019	0.161656388163
1	3550	590.505180643861	0.161656388163
1	3555	590.902220438565	0.161656388163
1	3560	592.038128564154	0.161656388163
1	3565	592.610802227018	0.161656388163
1	3570	593.441558381402	0.161656388163
1	3575	594.838768308983	0.161656388163
1	3580	595.892082052225	0.161656388163
1	3587	596.556533107806	0.161656388163
1	3592	596.718189495969	0.253277191672
1	3595	596.879845884132	0.188819511339
1	3600	599.472410237606	0.161656388163
1	3605	599.666475121376	0.161656388163
1	3610	600.26141124182	0.161656388163
1	3615	600.648013395714	0.161656388163
1	3620	601.057903306439	0.161656388163
1	3625	602.500912774047	0.161656388163
1	3630	603.415527827732	0.161656388163
1	3635	604.197056059744	0.161656388163
1	3640	605.032882088788	0.161656388163
1	3645	605.507502894092	0.161656388163
1	3650	606.476948638543	0.161656388163
1	3655	608.213643934104	0.161656388163
1	3660	608.928383460231	0.161656388163
1	3665	609.961388900184	0.161656388163
1	3672	610.160311146275	0.161656388163
1	3675	610.321967534438	0.168011357097
1	3680	615.153816623847	0.161656388163
1	3685	616.593372108668	0.161656388163
1	3690	618.246719695275	0.161656388163
1	3695	619.230665787448	0.161656388163
1	3702	619.804747300805	0.161656388163
1	3705	619.966403688968	0.28170181147
1	3710	620.262047688192	0.161656388163
1	3715	622.272980747937	0.161656388163
1	3720	624.369302705391	0.161656388163
1	3725	624.572963042916	0.161656388163
1	3730	625.082885252364	0.161656388163
1	3735	627.095251030499	0.161656388163
1	3744	628.179217716157	0.161656388163
1	3747	628.34087410432	0.303083120664
1	3750	628.502530492483	0.415029924584
1	3755	628.666694228284	0.161656388163
1	3760	629.638975656317	0.161656388163
1	3765	629.985245819137	0.161656388163
1	3772	630.521250992251	0.161656388163
1	3775	630.682907380414	0.204154433015
1	3780	630.923784374228	0.161656388163
1	3785	631.51808259368	0.161656388163
1	3790	631.709316036263	0.161656388163
1	3795	632.806955247773	0.161656388163
1	3800	633.571952834014	0.161656388163
1	3805	634.076930788076	0.161656388163
1	3810	636.095207265816	0.161656388163
1	3815	637.754391341797	0.161656388163
1	3820	638.616810590626	0.161656388163
1	3825	638.985946215332	0.161656388163
1	3830	639.828157336396	0.161656388163
1	3837	640.575790572902	0.161656388163
1	3840	640.737446961065	0.277944787994
1	3845	641.172746627831	0.161656388163
1	3850	642.270972504596	0.161656388163
1	3855	644.638105942803	0.161656388163
1	3860	644.90260221507	0.161656388163
1	3866	645.374810172328	0.161656388163
1	3871	645.849557760989	0.161656388163
1	3876	646.382957615868	0.161656388163
1	3881	647.842734116709	0.161656388163
1	3886	649.548876268535	0.161656388163
1	3891	650.507248499088	0.161656388163
1	3896	650.743595660303	0.161656388163
1	3901	651.751039284816	0.161656388163
1	3906	652.018834886314	0.161656388163
1	3911	652.612610434077	0.161656388163
1	3916	656.206747064216	0.161656388163
1	3921	657.243735334645	0.161656388163
1	3926	657.872767704928	0.161656388163
1	3931	659.399070549993	0.161656388163
1	3938	659.869173953883	0.161656388163
1	3941	660.030830342046	0.279843144909
1	3946	660.520285145121	0.161656388163
1	3951	661.846176048685	0.161656388163
1	3958	662.843952867236	0.161656388163
1	3961	663.005609255399	0.202323726579
1	3966	663.603310196854	0.161656388163
1	3971	663.793665747192	0.161656388163
1	3976	664.91767012062	0.161656388163
1	3981	665.364575612554	0.161656388163
1	3986	668.290364893421	0.161656388163
1	3991	668.461527460771	0.161656388163
1	3998	668.807720272933	0.161656388163
1	4001	668.969376661096	0.298871229901
1	4006	669.377850548723	0.161656388163
1	4011	670.488564776103	0.161656388163
1	4016	672.372422180392	0.161656388163
1	4021	673.834482016155	0.161656388163
1	4026	674.010857680393	0.161656388163
1	4033	676.430685642709	0.161656388163
1	4036	676.592342030872	0.240937582571
1	4041	677.180327665098	0.161656388163
1	4046	677.571100342461	0.161656388163
1	4051	678.068845497908	0.161656388163
1	4056	678.675237798021	0.161656388163
1	4061	680.72132109532	0.161656388163
1	4066	682.454819523564	0.161656388163
1	4071	683.319542673755	0.161656388163
1	4076	683.599576958105	0.161656388163
1	4081	684.502645269647	0.161656388163
1	4086	685.205820966906	0.161656388163
1	4091	686.075530325626	0.161656388163
1	4096	687.448532831761	0.161656388163
1	4101	688.058079129239	0.161656388163
1	4106	688.531415447948	0.161656388163
1	4111	691.303349132864	0.161656388163
1	4118	691.513624943014	0.161656388163
1	4121	691.675281331177	0.298357264334
1	4126	691.922686427378	0.161656388163
1	4131	692.387509583475	0.161656388163
1	4136	694.436138824768	0.161656388163
1	4141	695.792581240539	0.161656388163
1	4146	696.931492483	0.161656388163
1	4151	697.09473516757	0.161656388163
1	4156	697.613746660563	0.161656388163
1	4161	699.427581554843	0.161656388163
1	4166	699.607638045112	0.161656388163
1	4173	700.614671058384	0.161656388163
1	4176	700.776327446547	0.26818060486
1	4183	704.270650711414	0.161656388163
1	4186	704.432307099577	0.200492150713
1	4191	705.734939108675	0.161656388163
1	4196	706.617234271354	0.161656388163
1	4201	707.517937499038	0.161656388163
1	4206	707.787051910592	0.161656388163
1	4211	708.079787353444	0.161656388163
1	4219	708.440131066513	0.205970975827
1	4224	708.601787454676	0.353921959514
1	4229	708.763443842839	0.26344246291
1	4232	708.925100231002	0.321303712146
1	4237	709.146900684894	0.161656388163
1	4246	710.720134924576	0.161656388163
1	4249	710.881791312739	0.305811142545
1	4252	711.043447700902	0.455601961319
1	4257	711.532702097776	0.161656388163
1	4262	712.785159675032	0.161656388163
1	4267	714.351985165358	0.161656388163
1	4272	714.868310174299	0.161656388163
1	4277	715.96902720412	0.161656388163
1	4282	718.57138183746	0.161656388163
1	4289	719.737822098491	0.161656388163
1	4292	719.899478486654	0.305986585931
1	4297	720.252296306053	0.161656388163
1	4302	720.423585111168	0.161656388163
1	4307	721.73790903633	0.161656388163
1	4312	722.636083744966	0.161656388163
1	4317	723.351138177237	0.161656388163
1	4322	723.537281074822	0.161656388163
1	4327	724.575864755188	0.161656388163
1	4334	726.576936238922	0.161656388163
1	4337	726.738592627085	0.303806940079
1	4342	728.194089204952	0.161656388163
1	4347	729.629677196123	0.161656388163
1	4352	731.711831769522	0.161656388163
1	4357	732.283583120275	0.161656388163
1	4366	733.141652354186	0.161656388163
1	4369	733.303308742349	0.299745892749
1	4372	733.464965130512	0.415392862623
1	4377	734.889464254556	0.161656388163
1	4382	735.573771046497	0.161656388163
1	4387	737.211361486289	0.161656388163
1	4392	738.026108910323	0.161656388163
1	4397	738.353014831627	0.161656388163
1	4402	738.548869827234	0.161656388163
1	4407	740.692895594189	0.161656388163
1	4412	740.989569325756	0.161656388163
1	4417	741.674470810806	0.161656388163
1	4424	743.388767581005	0.161656388163
1	4427	743.550423969168	0.271382046711
1	4432	743.765163872956	0.161656388163
1	4437	745.185092011907	0.161656388163
1	4444	745.682955268921	0.161656388163
1	4447	745.844611657084	0.304766584347
1	4452	746.853799749214	0.161656388163
1	4457	750.257489988568	0.161656388163
1	4462	750.513168842852	0.161656388163
1	4467	751.852670235639	0.161656388163
1	4474	752.241868355854	0.161656388163
1	4477	752.403524744017	0.240725312578
1	4482	753.618891861352	0.161656388163
1	4487	754.457199996513	0.161656388163
1	4492	754.65365569867	0.161656388163
1	4497	756.03829493111	0.161656388163
1	4502	757.6169447786	0.161656388163
1	4507	758.476769404908	0.161656388163
1	4512	759.386051948203	0.161656388163
1	4517	760.884879605686	0.161656388163
1	4522	761.576074593189	0.161656388163
1	4527	762.056710992273	0.161656388163
1	4532	762.870578460141	0.161656388163
1	4537	766.501823758764	0.161656388163
1	4544	767.076739695997	0.161656388163
1	4549	767.23839608416	0.272070753182
1	4554	767.400052472323	0.224237627679
1	4559	767.561708860486	0.30856623418
1	4562	767.723365248649	0.163425707344
1	4568	768.223270328194	0.161656388163
1	4577	768.429335128491	0.161656388163
1	4580	768.590991516654	0.303586846275
1	4583	768.752647904817	0.448935229585
1	4588	770.884902419568	0.161656388163
1	4593	771.290992235252	0.161656388163
1	4598	774.512865685527	0.161656388163
1	4603	776.816585117165	0.161656388163
1	4608	777.007125944365	0.161656388163
1	4613	778.662227789513	0.161656388163
1	4618	779.157211150921	0.161656388163
1	4623	779.422693685597	0.161656388163
1	4628	779.95574439254	0.161656388163
1	4633	781.469514124536	0.161656388163
1	4638	783.244741975391	0.161656388163
1	4643	784.970591720494	0.161656388163
1	4648	785.743420749361	0.161656388163
1	4653	785.917051914574	0.161656388163
1	4658	787.795531331453	0.161656388163
1	4667	789.83671124362	0.161656388163
1	4670	789.998367631783	0.237963227686
1	4673	790.160024019946	0.348706954581
1	4678	791.076843161475	0.161656388163
1	4683	791.424167249673	0.161656388163
1	4688	792.66209231386	0.161656388163
1	4695	793.082201594655	0.161656388163
1	4698	793.243857982818	0.303507585835
1	4703	794.371685969042	0.161656388163
1	4712	795.832081092061	0.161656388163
1	4715	795.993737480224	0.230674848068
1	4718	796.155393868387	0.388150698797
1	4723	797.170470083516	0.161656388163
1	4728	797.431550977612	0.161656388163
1	4733	797.620541244905	0.161656388163
1	4738	797.951342753712	0.161656388163
1	4743	799.585536238068	0.161656388163
1	4748	800.307034617887	0.161656388163
1	4753	801.099027230338	0.161656388163
1	4758	802.436483810998	0.161656388163
1	4763	802.864434569467	0.161656388163
1	4768	803.982693424501	0.161656388163
1	4773	805.683137055293	0.161656388163
1	4778	806.247029910515	0.161656388163
1	4783	808.248262934766	0.161656388163
1	4788	810.681044083102	0.161656388163
1	4793	811.455818521695	0.161656388163
1	4798	812.679983950607	0.161656388163
1	4803	813.287540646388	0.161656388163
1	4808	814.072669460334	0.161656388163
1	4813	815.5272591433	0.161656388163
1	4818	816.046572660366	0.161656388163
1	4823	816.791306024491	0.161656388163
1	4828	817.061033435954	0.161656388163
1	4833	818.951943523538	0.161656388163
1	4838	819.790772633537	0.161656388163
1	4843	821.086546299209	0.161656388163
1	4848	821.559919903884	0.161656388163
1	4853	822.977799894546	0.161656388163
1	4858	824.840712239829	0.161656388163
1	4863	825.090804371551	0.161656388163
1	4868	825.311140314595	0.161656388163
1	4875	825.816584237904	0.161656388163
1	4878	825.978240626067	0.256573159299
1	4883	826.732469370086	0.161656388163
1	4888	827.315001860084	0.161656388163
1	4893	827.539721704723	0.161656388163
1	4898	830.419651985192	0.161656388163
1	4903	832.737931159803	0.161656388163
1	4908	833.887112965303	0.161656388163
1	4913	834.187674890266	0.161656388163
1	4919	834.548018603335	0.283325749866
1	4924	835.533508134211	0.161656388163
1	4931	835.729034211196	0.161656388163
1	4936	835.890690599359	0.203195442258
1	4939	836.052346987522	0.258592399706
1	4944	836.489663031582	0.161656388163
1	4949	837.486650939479	0.161656388163
1	4954	840.214253738414	0.161656388163
1	4959	840.826888558326	0.161656388163
1	4964	841.794764731457	0.161656388163
1	4971	842.509653156283	0.161656388163
1	4974	842.671309544446	0.177396363564
1	4979	843.177447105888	0.161656388163
1	4984	844.929086880357	0.161656388163
1	4989	847.620321260965	0.161656388163
1	4996	848.323395788489	0.161656388163
1	4999	848.485052176652	0.207888074608
1	5006	851.053718802458	0.161656388163
1	5009	851.215375190621	0.218544258207
1	5014	851.644649820412	0.161656388163
1	5019	854.903804299133	0.161656388163
1	5024	855.596755975667	0.161656388163
1	5029	856.527396706655	0.161656388163
1	5034	856.748821652095	0.161656388163
1	5039	857.023995846369	0.161656388163
1	5044	858.151483417609	0.161656388163
1	5049	859.41742958863	0.161656388163
1	5056	860.82638944241	0.161656388163
1	5059	860.988045830573	0.210463234315
1	5064	861.830231604793	0.161656388163
1	5069	862.011439438252	0.161656388163
1	5074	863.1314843932	0.161656388163
1	5079	863.38143983643	0.161656388163
1	5084	864.026510080532	0.161656388163
1	5089	864.203083725118	0.161656388163
1	5094	864.705790566882	0.161656388163
1	5099	867.36752290701	0.161656388163
1	5104	867.530351137433	0.161656388163
1	5109	869.040951478223	0.161656388163
1	5114	871.043678540771	0.161656388163
1	5119	872.78456310799	0.161656388163
1	5124	873.238083954547	0.161656388163
1	5131	873.852589457633	0.161656388163
1	5134	874.014245845796	0.245595213322
1	5139	874.329589069798	0.161656388163
1	5144	875.982546209936	0.161656388163
1	5149	878.13909731574	0.161656388163
1	5154	879.799575658351	0.161656388163
1	5161	883.552638669689	0.161656388163
1	5164	883.714295057852	0.301403823233
1	5171	885.121531282133	0.161656388163
1	5174	885.283187670296	0.191757300648
1	5179	885.510047156024	0.161656388163
1	5186	885.851050595705	0.161656388163
1	5189	886.012706983868	0.323305475695
1	5194	886.215464442935	0.161656388163
1	5199	887.551269220543	0.161656388163
1	5204	888.066255743092	0.161656388163
1	5209	888.468121814463	0.161656388163
1	5214	890.690257849873	0.161656388163
1	5219	891.07194907715	0.161656388163
1	5224	894.487402692341	0.161656388163
1	5231	895.53771508837	0.161656388163
1	5234	895.699371476533	0.256670442434
1	5239	895.935474774571	0.161656388163
1	5244	897.2241881958	0.161656388163
1	5249	897.603328426566	0.161656388163
1	5254	900.188202696969	0.161656388163
1	5259	901.208882891294	0.161656388163
1	5264	902.012539901338	0.161656388163
1	5270	902.97554811596	0.161656388163
1	5275	903.666825858878	0.161656388163
1	5280	904.495145210928	0.161656388163
1	5285	904.995623965012	0.161656388163
1	5290	906.600028533358	0.161656388163
1	5295	908.195081707402	0.161656388163
1	5300	909.657186218824	0.161656388163
1	5305	910.375839081544	0.161656388163
1	5310	913.07023993066	0.161656388163
1	5317	913.639312921434	0.161656388163
1	5320	913.800969309597	0.302588107878
1	5325	915.135511942194	0.161656388163
1	5330	915.434293929398	0.161656388163
1	5335	916.135797969807	0.161656388163
1	5342	916.646438326657	0.161656388163
1	5345	916.80809471482	0.178909939572
1	5350	917.389285059395	0.161656388163
1	5355	920.239895669088	0.161656388163
1	5362	921.16728890853	0.161656388163
1	5367	921.328945296693	0.242620948932
1	5372	921.490601684856	0.289378082856
1	5377	921.652258073019	0.236866133242
1	5380	921.813914461182	0.214701732334
1	5385	922.056933220214	0.161656388163
1	5390	922.451249748303	0.161656388163
1	5395	923.135382114459	0.161656388163
1	5400	924.549479697836	0.161656388163
1	5407	927.467136917364	0.161656388163
1	5410	927.628793305527	0.220459601159
1	5415	929.259963420898	0.161656388163
1	5420	930.975781778885	0.161656388163
1	5425	931.798052915229	0.161656388163
1	5430	932.386624617079	0.161656388163
1	5435	934.77763105001	0.161656388163
1	5440	935.10583216565	0.161656388163
1	5445	939.007595881693	0.161656388163
1	5450	940.292721911571	0.161656388163
1	5455	940.638313332877	0.161656388163
1	5460	941.780505110653	0.161656388163
1	5465	942.212919183907	0.161656388163
1	5470	942.624004578157	0.161656388163
1	5475	943.178323287657	0.161656388163
1	5480	943.340574590022	0.161656388163
1	5485	944.6065880528	0.161656388163
1	5490	945.371336666664	0.161656388163
1	5495	946.818192253887	0.161656388163
1	5500	947.705014191122	0.161656388163
1	5505	947.991995492338	0.161656388163
1	5510	948.995577612194	0.161656388163
1	5515	950.646559990425	0.161656388163
1	5520	952.145885059773	0.161656388163
1	5525	952.456285866582	0.161656388163
1	5530	952.816944746638	0.161656388163
1	5535	953.723499656877	0.161656388163
1	5542	957.40512128408	0.161656388163
1	5545	957.566777672243	0.200281776801
1	5550	958.942608146844	0.161656388163
1	5555	959.460360963493	0.161656388163
1	5560	960.482039698163	0.161656388163
1	5565	961.368901639506	0.161656388163
1	5570	962.025924849764	0.161656388163
1	5575	962.1956284312	0.161656388163
1	5582	963.766559588519	0.161656388163
1	5585	963.928215976682	0.227987573535
1	5590	964.555894750333	0.161656388163
1	5595	965.386041748623	0.161656388163
1	5600	966.311908919997	0.161656388163
1	5605	967.035081500402	0.161656388163
1	5612	967.849561781201	0.161656388163
1	5615	968.011218169364	0.263087294922
1	5623	970.288798059538	0.161656388163
1	5626	970.450454447701	0.268861347203
1	5631	970.765738320944	0.161656388163
1	5636	973.576777390792	0.161656388163
1	5641	975.170830512984	0.161656388163
1	5646	975.538906256539	0.161656388163
1	5651	977.201648135106	0.161656388163
1	5656	977.853394178024	0.161656388163
1	5661	980.670857973015	0.161656388163
1	5666	982.148958342888	0.161656388163
1	5671	982.366172555325	0.161656388163
1	5676	983.635464935672	0.161656388163
1	5683	984.084094729032	0.161656388163
1	5688	984.245751117195	0.24421589242
1	5691	984.407407505358	0.29413741637
1	5696	986.958798834201	0.161656388163
1	5701	987.394637990035	0.161656388163
1	5706	988.506561058807	0.161656388163
1	5713	988.760610487981	0.161656388163
1	5716	988.922266876144	0.277773386242
1	5721	989.574208636122	0.161656388163
1	5726	992.34328242746	0.161656388163
1	5731	993.613667891519	0.161656388163
1	5736	994.569872523453	0.161656388163
1	5741	995.307886305672	0.161656388163
1	5746	997.3815504068	0.161656388163
1	5751	997.622873804042	0.161656388163
1	5756	998.124393393131	0.161656388163
1	5763	998.630227258577	0.161656388163
1	5766	998.79188364674	0.276159446425
2	5	0.427184078566	0
2	12	0.763330129994	0
2	15	0.924986518157	0.045211572732
2	20	3.908349311808	0
2	25	4.218941445409	0
2	30	4.71156066862	0
2	35	5.887323201244	0
2	40	7.088261747501	0
2	45	7.973473675772	0
2	50	8.676984864511	0
2	55	9.298370467014	0
2	62	10.631152432353	0
2	65	10.792808820516	0.159435010978
2	72	11.217082726258	0
2	75	11.378739114421	0.137622184645
2	84	12.712451095294	0
2	87	12.874107483457	0.079031543276
2	90	13.03576387162	0.198312627604
2	95	13.854466889563	0
2	102	14.745973962921	0
2	105	14.907630351084	0.134892341495
2	110	15.1312198597	0
2	115	15.679124277934	0
2	126	15.86228745825	0
2	129	16.023943846413	0.134833462562
2	132	16.185600234576	0.228923814314
2	135	16.347256622739	0.358204636809
2	140	17.26445895168	0
2	145	18.577815247935	0
2	150	18.996806028294	0
2	155	20.30408066246	0
2	160	21.215611863186	0
2	167	21.941951272911	0
2	170	22.103607661074	0.101294406829
2	177	22.410241979381	0
2	184	22.571898367544	0.03984015319
2	187	22.733554755707	0.14361358135
2	192	22.89521114387	0.194927005462
2	197	23.056867532033	0.112031167974
2	200	23.218523920196	0.068648783471
2	205	24.013800559432	0
2	210	25.45502310611	0
2	215	26.879359302534	0
2	222	28.833214835585	0
2	227	28.994871223748	0.034721753181
2	230	29.156527611911	0.029004592176
2	235	30.516867853155	0
2	240	30.962922055508	0
2	245	33.088742221475	0
2	250	34.323574840364	0
2	255	35.617142295148	0
2	260	35.800806637855	0
2	265	37.451054333438	0
2	270	37.77929578697	0
2	275	38.548088408163	0
2	280	39.283838633009	0
2	285	40.98220767434	0
2	290	41.194243250801	0
2	295	41.363778275085	0
2	300	43.671561340236	0
2	307	44.170944940282	0
2	310	44.332601328445	0.117750003218
2	315	45.210962401676	0
2	320	48.158821988088	0
2	325	48.421706926297	0
2	330	51.500979656032	0
2	335	52.189762593712	0
2	340	54.23249236626	0
2	347	55.248850031457	0
2	350	55.41050641962	0.074810492043
2	356	56.13682570914	0
2	361	57.076602983018	0
2	366	57.438265403311	0
2	373	57.656724798121	0
2	376	57.818381186284	0.091719123759
2	381	58.572943488031	0
2	386	59.302148337014	0
2	393	60.506711596513	0
2	396	60.668367984676	0.093615523575
2	403	61.692054167226	0
2	408	61.853710555389	0.057011990443
2	413	62.015366943552	0.120937084409
2	416	62.177023331715	0.106445632397
2	423	65.863809066076	0
2	426	66.025465454239	0.03821532512
2	433	66.198327323434	0
2	438	66.359983711597	0.139828809122
2	441	66.52164009976	0.025246651894
2	446	67.639982121574	0
2	451	68.566941487398	0
2	456	69.696703911461	0
2	461	71.275951905426	0
2	466	72.031746360762	0
2	473	72.82641021397	0
2	476	72.988066602133	0.058736308093
2	483	73.730830395714	0
2	486	73.892486783877	0.001738961825
2	491	78.10373948878	0
2	498	79.26904653965	0
2	501	79.430702927813	0.107989864403
2	510	80.133989113002	0
2	513	80.295645501165	0.027391801166
2	518	80.457301889328	0.182112388369
2	523	80.618958277491	0.131870054992
2	526	80.780614665654	0.091325794094
2	531	81.049171320401	0
2	538	81.557628064461	0
2	541	81.719284452624	0.155034211199
2	546	86.662378195633	0
2	551	86.93994458404	0
2	556	87.114692457114	0
2	561	91.72238752156	0
2	566	92.832087203251	0
2	571	93.646484592788	0
2	576	94.165634634753	0
2	585	94.47665538637	0
2	588	94.638311774533	0.121644159623
2	591	94.799968162696	0.198363990346
2	596	95.794809874781	0
2	603	96.067126029449	0
2	608	96.228782417612	0.034104386987
2	611	96.390438805775	0.0886307409
2	616	96.61665026343	0
2	621	96.897244673198	0
2	626	97.651325579663	0
2	633	99.411677820292	0
2	636	99.573334208455	0.023195914022
2	641	100.553773243686	0
2	646	102.236430493109	0
2	653	102.739532827583	0
2	656	102.901189215746	0.029337107564
2	661	103.887716487998	0
2	666	105.490250738814	0
2	671	106.404883888052	0
2	676	106.711704231939	0
2	681	108.117961275248	0
2	686	108.87467846223	0
2	691	109.396867560923	0
2	698	110.325569565309	0
2	701	110.487225953472	0.054885712844
2	707	111.606595354165	0
2	712	112.233313784442	0
2	717	112.553238360387	0
2	724	113.208602411748	0
2	729	113.370258799911	0.105695486912
2	732	113.531915188074	0.096781632292
2	737	114.159286305244	0
2	742	117.155965960092	0
2	747	117.409476166793	0
2	752	117.702529524181	0
2	759	118.193556188544	0
2	762	118.355212576707	0.018600554113
2	767	119.895454558372	0
2	774	120.175798476601	0
2	777	120.337454864764	0.045677260664
2	782	120.850420762831	0
2	787	121.771018228321	0
2	792	121.933799746857	0
2	797	122.583932371891	0
2	804	123.597134038846	0
2	807	123.758790427009	0.026097470651
2	812	124.685894641335	0
2	817	126.662132950146	0
2	822	127.385292328253	0
2	827	128.402167768934	0
2	832	129.24880209787	0
2	839	129.52724369604	0
2	842	129.688900084203	0.076677140708
2	847	130.31980087201	0
2	852	130.517721192484	0
2	857	131.414879078538	0
2	862	132.958843588749	0
2	867	133.493599431693	0
2	872	135.943897769817	0
2	877	137.697929839879	0
2	884	138.555988632599	0
2	887	138.717645020762	0.119687154135
2	892	139.862094806985	0
2	897	141.644563756975	0
2	902	142.768843820656	0
2	907	143.471004243983	0
2	912	143.708854106427	0
2	919	144.143548320584	0
2	924	144.305204708747	0.05989640852
2	927	144.46686109691	0.086355561629
2	932	144.989822167744	0
2	939	146.5841181356	0
2	942	146.745774523763	0.073957045356
2	947	149.256413395317	0
2	952	150.348422316646	0
2	957	152.335642134205	0
2	962	153.511193375837	0
2	967	154.455337568249	0
2	972	155.106673261864	0
2	977	155.569084089792	0
2	982	155.804207988566	0
2	987	157.333646648008	0
2	992	157.861695822452	0
2	997	158.507298656112	0
2	1002	159.318575965148	0
2	1007	160.031139862252	0
2	1012	161.270233922195	0
2	1017	161.519270857052	0
2	1022	161.765599428501	0
2	1027	162.049711449672	0
2	1032	163.369209850073	0
2	1037	164.147800162409	0
2	1042	164.335018534358	0
2	1047	165.847486642695	0
2	1052	166.009214538883	0
2	1058	166.618674015506	0
2	1063	169.443836452079	0
2	1070	170.211148205056	0
2	1073	170.372804593219	0.123061747121
2	1078	170.626255881614	0
2	1085	171.368008353631	0
2	1088	171.529664741794	0.089865001321
2	1093	171.701353635631	0
2	1100	172.12349464305	0
2	1103	172.285151031213	0.046177808013
2	1108	172.653143067396	0
2	1113	172.841809389974	0
2	1118	173.276793988353	0
2	1123	177.349887587413	0
2	1128	177.556955806992	0
2	1133	179.789618521407	0
2	1138	180.14607807679	0
2	1143	180.333210948997	0
2	1148	182.068586530282	0
2	1153	186.023827592612	0
2	1158	188.086160288359	0
2	1163	188.73850928558	0
2	1168	189.475870957811	0
2	1173	189.990661936853	0
2	1178	190.353789745097	0
2	1183	190.615107935948	0
2	1188	190.787858597435	0
2	1193	191.927119214338	0
2	1198	192.42424470103	0
2	1203	192.739681584774	0
2	1208	193.214419914262	0
2	1213	193.564418704435	0
2	1218	195.005979768397	0
2	1223	196.928572620365	0
2	1228	197.352777670487	0
2	1235	201.238017936018	0
2	1238	201.399674324181	0.022360402949
2	1243	203.722231879676	0
2	1248	205.054418465185	0
2	1253	206.666000139887	0
2	1258	207.051703113305	0
2	1263	207.719057307071	0
2	1268	207.938643422927	0
2	1275	208.289711240593	0
2	1278	208.451367628756	0.142968802265
2	1285	208.704367204861	0
2	1288	208.866023593024	0.07093622974
2	1293	210.10339723644	0
2	1298	210.443396325242	0
2	1305	210.753283070402	0
2	1308	210.914939458565	0.042888934787
2	1313	212.303504378765	0
2	1318	213.604501240304	0
2	1325	217.83897752937	0
2	1328	218.000633917533	0.1605431339
2	1333	218.910348179666	0
2	1338	219.496500704502	0
2	1343	219.852323498872	0
2	1348	220.077950618699	0
2	1353	220.707467093894	0
2	1362	221.803985039462	0
2	1365	221.965641427625	0.05410351019
2	1368	222.127297815788	0.21184176118
2	1373	222.858034554687	0
2	1378	223.405716252494	0
2	1383	223.79383560917	0
2	1388	224.905879449599	0
2	1393	229.698176839968	0
2	1398	229.957529765447	0
2	1403	231.064078027596	0
2	1409	231.714301892154	0
2	1414	232.496177641563	0
2	1419	232.772785885778	0
2	1426	232.963013319593	0
2	1429	233.124669707756	0.085684282436
2	1434	233.788441258809	0
2	1439	234.436982781961	0
2	1444	235.570807749979	0
2	1449	235.973066938144	0
2	1454	236.7199724915	0
2	1459	237.396357982753	0
2	1464	238.273055884906	0
2	1471	238.814144295842	0
2	1474	238.975800684005	0.048002534353
2	1479	241.366303684012	0
2	1484	242.14960846929	0
2	1489	242.913252646944	0
2	1494	244.638782642714	0
2	1499	245.201910693325	0
2	1506	246.895374525478	0
2	1509	247.057030913641	0.125510688611
2	1514	247.386447186934	0
2	1519	247.688794809864	0
2	1524	249.633377627199	0
2	1529	250.22977022344	0
2	1534	250.742397109682	0
2	1541	251.2706737863	0
2	1546	251.432330174463	0.137698704891
2	1549	251.593986562626	0.094801851071
2	1554	253.197278077444	0
2	1559	254.342952014739	0
2	1564	254.90271842335	0
2	1569	255.246094046036	0
2	1574	255.683422869976	0
2	1579	257.073594199422	0
2	1584	257.644769630025	0
2	1589	260.936377504938	0
2	1594	263.196299108668	0
2	1601	263.443265380024	0
2	1604	263.604921768187	0.046484768527
2	1609	264.121613307801	0
2	1614	264.7636222861	0
2	1619	265.169705036037	0
2	1626	268.305120678752	0
2	1629	268.466777066915	0.033517981885
2	1634	268.998599389354	0
2	1639	271.592350586798	0
2	1644	272.345344354645	0
2	1649	272.741719422743	0
2	1656	273.354327936616	0
2	1659	273.515984324779	0.131014141176
2	1664	274.196950989828	0
2	1669	274.804258949966	0
2	1674	275.461241518449	0
2	1679	278.278673855739	0
2	1684	278.710994113783	0
2	1689	279.440070265749	0
2	1694	279.790666333739	0
2	1699	281.173049704261	0
2	1704	282.533641222339	0
2	1709	284.351404250931	0
2	1714	284.701505975101	0
2	1719	285.765472335855	0
2	1724	286.383904797628	0
2	1729	287.491686142893	0
2	1734	290.79250479422	0
2	1739	291.483801172127	0
2	1744	293.150642099703	0
2	1749	294.288533329499	0
2	1754	294.741225321621	0
2	1764	295.10156903469	0.198509394421
2	1767	295.263225422853	0.354823591525
2	1770	295.424881811016	0.409881871794
2	1775	295.862969403095	0
2	1780	296.16809548924	0
2	1785	296.952982528053	0
2	1790	299.409478185024	0
2	1797	299.620625650758	0
2	1800	299.782282038921	0.044808177684
2	1805	300.11388526316	0
2	1810	300.721742103589	0
2	1815	301.51396958797	0
2	1820	302.146146194417	0
2	1825	303.75856021101	0
2	1830	304.631699280114	0
2	1835	305.431229013086	0
2	1840	306.004261056915	0
2	1847	306.85183173723	0
2	1850	307.013488125393	0.15061275452
2	1855	308.039045233959	0
2	1862	309.660236297623	0
2	1867	309.821892685786	0.139136503296
2	1872	309.983549073949	0.155060841121
2	1875	310.145205462112	0.024931233037
2	1880	312.371040995738	0
2	1885	312.913509837356	0
2	1890	314.484888852658	0
2	1895	316.893740678624	0
2	1900	317.087661801015	0
2	1905	317.750094846422	0
2	1912	318.723497037449	0
2	1917	318.885153425612	0.051559869623
2	1920	319.046809813775	0.110859804823
2	1927	319.211960945666	0
2	1932	319.373617333829	0.01613008751
2	1935	319.535273721992	0.154697961904
2	1942	320.089912176255	0
2	1945	320.251568564418	0.052309864171
2	1950	322.121737811032	0
2	1955	323.197711162828	0
2	1960	325.516636345402	0
2	1965	326.135538746474	0
2	1970	328.4932585346	0
2	1975	329.599225116609	0
2	1982	329.936546452344	0
2	1985	330.098202840507	0.014995374086
2	1990	330.74001532265	0
2	1995	332.299945764659	0
2	2000	333.682046478212	0
2	2005	334.285402338047	0
2	2010	337.856798697294	0
2	2015	338.988391732563	0
2	2020	340.290286115865	0
2	2025	340.702033328644	0
2	2030	341.928518055951	0
2	2037	342.330992379891	0
2	2042	342.492648768054	0.008558432414
2	2045	342.654305156217	0.14537773664
2	2052	343.43320569654	0
2	2057	343.594862084703	0.148584766699
2	2060	343.756518472866	0.118429909831
2	2065	344.861080249563	0
2	2070	345.867956585915	0
2	2075	346.423199500815	0
2	2082	347.373798862428	0
2	2087	347.535455250591	0.141377747608
2	2090	347.697111638754	0.082794905936
2	2097	349.545296624474	0
2	2100	349.706953012637	0.109811386246
2	2107	350.971591400385	0
2	2113	351.331935113454	0.255323124666
2	2116	351.493591501617	0.351814024435
2	2121	355.368248292751	0
2	2126	355.711809266299	0
2	2131	355.988719437694	0
2	2136	357.057832435322	0
2	2141	357.51097897132	0
2	2148	358.657329324042	0
2	2151	358.818985712205	0.006556957707
2	2158	359.424111600676	0
2	2161	359.585767988839	0.046036239128
2	2166	361.124450818177	0
2	2173	363.083779971052	0
2	2176	363.245436359215	0.137861628183
2	2181	365.17912979435	0
2	2186	366.014095696619	0
2	2191	366.676375269697	0
2	2196	367.086580525197	0
2	2203	367.835007120084	0
2	2206	367.996663508247	0.087049663227
2	2211	368.414472827205	0
2	2216	369.273689707684	0
2	2221	372.173568982601	0
2	2226	373.280092731712	0
2	2231	373.854880079574	0
2	2236	374.45375968622	0
2	2241	376.040863583882	0
2	2248	376.26910943954	0
2	2253	376.430765827703	0.126583287558
2	2256	376.592422215866	0.096966404252
2	2261	379.195508122778	0
2	2266	379.37894239924	0
2	2271	380.515937438679	0
2	2276	381.70772530115	0
2	2281	381.89417742282	0
2	2286	383.990246516007	0
2	2291	384.880929899537	0
2	2296	385.210773117566	0
2	2303	385.654509191656	0
2	2306	385.816165579819	0.051438127263
2	2311	388.556293698353	0
2	2316	389.321287486383	0
2	2321	389.535673079626	0
2	2326	390.164315620187	0
2	2331	391.650949209315	0
2	2340	392.090542989924	0
2	2347	392.252199378087	0.141087363874
2	2350	392.41385576625	0.286562184337
2	2353	392.575512154413	0.254049771793
2	2356	392.737168542576	0.365401127426
2	2361	393.527767530782	0
2	2366	393.879131799188	0
2	2371	395.3754320048	0
2	2376	397.410850306996	0
2	2381	399.699514365591	0
2	2388	400.365342591176	0
2	2395	400.526998979339	0.090003047601
2	2398	400.688655367502	0.137350545334
2	2401	400.850311755665	0.182037261036
2	2406	403.266915405392	0
2	2413	405.566219492804	0
2	2416	405.727875880967	0.124459761963
2	2421	406.037541015848	0
2	2426	406.73241094661	0
2	2431	407.861567203597	0
2	2436	408.180072140142	0
2	2441	410.972094547261	0
2	2446	411.259385029718	0
2	2451	412.855355842276	0
2	2456	413.262727189147	0
2	2462	413.623070902216	0.014556856853
2	2467	414.154703459047	0
2	2472	415.561772247687	0
2	2479	415.844606464807	0
2	2484	416.00626285297	0.01995343362
2	2487	416.167919241133	0.120169219923
2	2492	417.198168549778	0
2	2497	418.540992316616	0
2	2504	419.973409903433	0
2	2507	420.135066291596	0.027010317227
2	2512	420.582614833208	0
2	2517	421.750497527411	0
2	2522	422.271529435547	0
2	2527	422.654606544077	0
2	2532	423.68561252798	0
2	2537	424.439431022279	0
2	2542	425.384644231145	0
2	2547	425.606225067021	0
2	2552	427.353023970366	0
2	2557	429.146668582939	0
2	2562	431.949275030861	0
2	2567	432.753734865447	0
2	2572	433.062732449853	0
2	2577	434.898600331241	0
2	2582	435.240179679569	0
2	2587	435.94774857135	0
2	2592	436.19383394743	0
2	2599	436.651034493592	0
2	2604	436.812690881755	0.109704047081
2	2607	436.974347269918	0.120090651155
2	2612	438.164240088645	0
2	2617	438.36074404434	0
2	2624	440.92655273745	0
2	2627	441.088209125613	0.066951191503
2	2632	441.750583881987	0
2	2637	443.341873174464	0
2	2642	443.791522461953	0
2	2649	444.086542322298	0
2	2652	444.248198710461	0.131439077019
2	2657	444.413973038912	0
2	2662	444.671343659872	0
2	2667	444.873336007245	0
2	2672	445.812102111756	0
2	2677	446.683698509255	0
2	2682	447.180273168297	0
2	2687	447.428995783852	0
2	2692	449.204138111265	0
2	2697	450.664417613541	0
2	2702	450.830999556506	0
2	2709	451.530385946152	0
2	2712	451.692042334315	0.104329114281
2	2717	452.397255736787	0
2	2722	454.236162710138	0
2	2727	455.295839446941	0
2	2734	459.11553429843	0
2	2737	459.277190686593	0.086286192515
2	2742	459.72728949455	0
2	2747	460.71860092137	0
2	2752	461.2750433594	0
2	2757	462.102734830917	0
2	2762	462.714034892982	0
2	2767	463.091038605473	0
2	2772	463.746659975137	0
2	2777	464.394090656299	0
2	2782	465.453412532761	0
2	2787	465.649923273797	0
2	2792	467.49879409144	0
2	2799	467.784414535622	0
2	2802	467.946070923785	0.131234001789
2	2807	469.311081849465	0
2	2813	469.783416218363	0
2	2820	470.45270903765	0
2	2823	470.614365425813	0.070501567769
2	2828	471.041076981942	0
2	2833	471.536379084561	0
2	2838	473.076778755429	0
2	2843	473.400281847143	0
2	2848	473.953649613771	0
2	2853	474.832313648125	0
2	2860	475.244213850392	0
2	2865	475.405870238555	0.066281168733
2	2870	475.567526626718	0.150247696132
2	2873	475.729183014881	0.131895985055
2	2878	476.295447582642	0
2	2885	476.569377555919	0
2	2888	476.731033944082	0.035394789245
2	2893	477.046576729703	0
2	2898	477.349766112422	0
2	2903	477.925629843001	0
2	2908	479.638742134782	0
2	2913	480.348618290713	0
2	2918	480.650545877544	0
2	2923	481.154775177217	0
2	2928	481.40850281194	0
2	2935	482.949764553158	0
2	2938	483.111420941321	0.023666712006
2	2943	483.530457178706	0
2	2948	485.006272380769	0
2	2953	485.709144840176	0
2	2958	486.698673270278	0
2	2963	486.942499881444	0
2	2968	487.75389163578	0
2	2973	487.996767798468	0
2	2978	488.709460922999	0
2	2983	490.582075818814	0
2	2988	492.257011310674	0
2	2995	492.878017919796	0
2	2998	493.039674307959	0.121054384534
2	3005	495.036276083197	0
2	3008	495.19793247136	0.16140680543
2	3013	496.45175452136	0
2	3018	496.897967405143	0
2	3023	498.009718863185	0
2	3028	500.69817604494	0
2	3033	503.494846464099	0
2	3038	504.830967473904	0
2	3043	505.402065101287	0
2	3048	506.276180316924	0
2	3053	507.512724952093	0
2	3060	508.273217474223	0
2	3065	508.434873862386	0.074547708304
2	3068	508.596530250549	0.010551079806
2	3073	511.050901661894	0
2	3078	513.476638684401	0
2	3083	513.748275411756	0
2	3088	517.571797511852	0
2	3093	518.411051114325	0
2	3098	518.649819319822	0
2	3103	519.795885115337	0
2	3108	520.142500370887	0
2	3113	521.036132675394	0
2	3118	521.866033758174	0
2	3125	522.60471739178	0
2	3128	522.766373779943	0.077447011011
2	3133	524.96570989849	0
2	3140	525.160041712683	0
2	3143	525.321698100846	0.158835672747
2	3150	527.042505706208	0
2	3155	527.204162094371	0.13562640213
2	3158	527.365818482534	0.088705464674
2	3164	529.606285289781	0
2	3169	530.36537563347	0
2	3174	531.036715611853	0
2	3181	531.957531907941	0
2	3184	532.119188296104	0.068109504226
2	3189	532.839857492814	0
2	3196	533.613050536393	0
2	3199	533.774706924556	0.160037375545
2	3206	534.557995322858	0
2	3209	534.719651711021	0.048143674014
2	3214	535.440207128869	0
2	3219	537.395841054581	0
2	3224	537.687172955727	0
2	3229	537.936112663591	0
2	3234	540.045143100897	0
2	3239	540.459019912971	0
2	3244	541.464373022575	0
2	3251	541.6791189468	0
2	3254	541.840775334963	0.094958782451
2	3261	543.169494879048	0
2	3264	543.331151267211	0.152089455113
2	3269	544.676003894701	0
2	3274	545.353496981776	0
2	3279	545.772857038526	0
2	3284	546.618203804955	0
2	3289	546.975468078682	0
2	3294	547.326670234005	0
2	3301	548.014467988831	0
2	3304	548.176124376994	0.102748210612
2	3309	553.029348940794	0
2	3314	554.391353968948	0
2	3321	554.882655812896	0
2	3324	555.044312201059	0.12816537254
2	3329	555.448152517748	0
2	3334	555.736031469788	0
2	3339	556.003089478879	0
2	3344	556.546994387115	0
2	3349	556.75168217488	0
2	3354	557.231601705774	0
2	3361	558.37035561544	0
2	3366	558.532012003603	0.103320286033
2	3369	558.693668391766	0.034861674747
2	3376	559.293832533879	0
2	3379	559.455488922042	0.059311250004
2	3388	560.784565195452	0
2	3391	560.946221583615	0.077743291999
2	3396	561.107877971778	0.235134993646
2	3399	561.269534359941	0.149315674315
2	3404	561.53817895914	0
2	3409	563.840696593287	0
2	3416	564.265368816612	0
2	3419	564.427025204775	0.040604783375
2	3424	564.972413251248	0
2	3429	565.425325727652	0
2	3434	566.21294874982	0
2	3439	566.451880010248	0
2	3444	567.761074598502	0
2	3449	568.022564534053	0
2	3454	569.359559487946	0
2	3459	570.673511134016	0
2	3464	571.304306572105	0
2	3469	571.736598902707	0
2	3474	572.919033733341	0
2	3479	575.044999956982	0
2	3484	576.065276662227	0
2	3489	576.444759366689	0
2	3494	578.742244338319	0
2	3499	579.645189124	0
2	3504	580.676636531051	0
2	3509	582.027987605711	0
2	3515	583.794353462574	0
2	3520	584.241963848857	0
2	3525	584.459114774033	0
2	3530	586.775543901018	0
2	3535	587.47656925017	0
2	3540	589.439809435439	0
2	3545	589.839091775019	0
2	3550	590.505180643861	0
2	3555	590.902220438565	0
2	3560	592.038128564154	0
2	3565	592.610802227018	0
2	3570	593.441558381402	0
2	3575	594.838768308983	0
2	3580	595.892082052225	0
2	3587	596.556533107806	0
2	3592	596.718189495969	0.091620803509
2	3595	596.879845884132	0.027163123176
2	3600	599.472410237606	0
2	3605	599.666475121376	0
2	3610	600.26141124182	0
2	3615	600.648013395714	0
2	3620	601.057903306439	0
2	3625	602.500912774047	0
2	3630	603.415527827732	0
2	3635	604.197056059744	0
2	3640	605.032882088788	0
2	3645	605.507502894092	0
2	3650	606.476948638543	0
2	3655	608.213643934104	0
2	3660	608.928383460231	0
2	3665	609.961388900184	0
2	3672	610.160311146275	0
2	3675	610.321967534438	0.006354968934
2	3680	615.153816623847	0
2	3685	616.593372108668	0
2	3690	618.246719695275	0
2	3695	619.230665787448	0
2	3702	619.804747300805	0
2	3705	619.966403688968	0.120045423307
2	3710	620.262047688192	0
2	3715	622.272980747937	0
2	3720	624.369302705391	0
2	3725	624.572963042916	0
2	3730	625.082885252364	0
2	3735	627.095251030499	0
2	3744	628.179217716157	0
2	3747	628.34087410432	0.141426732501
2	3750	628.502530492483	0.253373536421
2	3755	628.666694228284	0
2	3760	629.638975656317	0
2	3765	629.985245819137	0
2	3772	630.521250992251	0
2	3775	630.682907380414	0.042498044852
2	3780	630.923784374228	0
2	3785	631.51808259368	0
2	3790	631.709316036263	0
2	3795	632.806955247773	0
2	3800	633.571952834014	0
2	3805	634.076930788076	0
2	3810	636.095207265816	0
2	3815	637.754391341797	0
2	3820	638.616810590626	0
2	3825	638.985946215332	0
2	3830	639.828157336396	0
2	3837	640.575790572902	0
2	3840	640.737446961065	0.116288399831
2	3845	641.172746627831	0
2	3850	642.270972504596	0
2	3855	644.638105942803	0
2	3860	644.90260221507	0
2	3866	645.374810172328	0
2	3871	645.849557760989	0
2	3876	646.382957615868	0
2	3881	647.842734116709	0
2	3886	649.548876268535	0
2	3891	650.507248499088	0
2	3896	650.743595660303	0
2	3901	651.751039284816	0
2	3906	652.018834886314	0
2	3911	652.612610434077	0
2	3916	656.206747064216	0
2	3921	657.243735334645	0
2	3926	657.872767704928	0
2	3931	659.399070549993	0
2	3938	659.869173953883	0
2	3941	660.030830342046	0.118186756746
2	3946	660.520285145121	0
2	3951	661.846176048685	0
2	3958	662.843952867236	0
2	3961	663.005609255399	0.040667338416
2	3966	663.603310196854	0
2	3971	663.793665747192	0
2	3976	664.91767012062	0
2	3981	665.364575612554	0
2	3986	668.290364893421	0
2	3991	668.461527460771	0
2	3998	668.807720272933	0
2	4001	668.969376661096	0.137214841738
2	4006	669.377850548723	0
2	4011	670.488564776103	0
2	4016	672.372422180392	0
2	4021	673.834482016155	0
2	4026	674.010857680393	0
2	4033	676.430685642709	0
2	4036	676.592342030872	0.079281194408
2	4041	677.180327665098	0
2	4046	677.571100342461	0
2	4051	678.068845497908	0
2	4056	678.675237798021	0
2	4061	680.72132109532	0
2	4066	682.454819523564	0
2	4071	683.319542673755	0
2	4076	683.599576958105	0
2	4081	684.502645269647	0
2	4086	685.205820966906	0
2	4091	686.075530325626	0
[...]
7	3484	576.065276662227	0
7	3489	576.444759366689	0
7	3494	578.742244338319	0
7	3499	579.645189124	0
7	3504	580.676636531051	0
7	3509	582.027987605711	0
7	3515	583.794353462574	0
7	3520	584.241963848857	0
7	3525	584.459114774033	0
7	3530	586.775543901018	0
7	3535	587.47656925017	0
7	3540	589.439809435439	0
7	3545	589.839091775019	0
7	3550	590.505180643861	0
7	3555	590.902220438565	0
7	3560	592.038128564154	0
7	3565	592.610802227018	0
7	3570	593.441558381402	0
7	3575	594.838768308983	0
7	3580	595.892082052225	0
7	3587	596.556533107806	0
7	3592	596.718189495969	0
7	3595	596.879845884132	0
7	3600	599.472410237606	0
7	3605	599.666475121376	0
7	3610	600.26141124182	0
7	3615	600.648013395714	0
7	3620	601.057903306439	0
7	3625	602.500912774047	0
7	3630	603.415527827732	0
7	3635	604.197056059744	0
7	3640	605.032882088788	0
7	3645	605.507502894092	0
7	3650	606.476948638543	0
7	3655	608.213643934104	0
7	3660	608.928383460231	0
7	3665	609.961388900184	0
7	3672	610.160311146275	0
7	3675	610.321967534438	0
7	3680	615.153816623847	0
7	3685	616.593372108668	0
7	3690	618.246719695275	0
7	3695	619.230665787448	0
7	3702	619.804747300805	0
7	3705	619.966403688968	0
7	3710	620.262047688192	0
7	3715	622.272980747937	0
7	3720	624.369302705391	0
7	3725	624.572963042916	0
7	3730	625.082885252364	0
7	3735	627.095251030499	0
7	3744	628.179217716157	0
7	3747	628.34087410432	0
7	3750	628.502530492483	0
7	3755	628.666694228284	0
7	3760	629.638975656317	0
7	3765	629.985245819137	0
7	3772	630.521250992251	0
7	3775	630.682907380414	0
7	3780	630.923784374228	0
7	3785	631.51808259368	0
7	3790	631.709316036263	0
7	3795	632.806955247773	0
7	3800	633.571952834014	0
7	3805	634.076930788076	0
7	3810	636.095207265816	0
7	3815	637.754391341797	0
7	3820	638.616810590626	0
7	3825	638.985946215332	0
7	3830	639.828157336396	0
7	3837	640.575790572902	0
7	3840	640.737446961065	0
7	3845	641.172746627831	0
7	3850	642.270972504596	0
7	3855	644.638105942803	0
7	3860	644.90260221507	0
7	3866	645.374810172328	0
7	3871	645.849557760989	0
7	3876	646.382957615868	0
7	3881	647.842734116709	0
7	3886	649.548876268535	0
7	3891	650.507248499088	0
7	3896	650.743595660303	0
7	3901	651.751039284816	0
7	3906	652.018834886314	0
7	3911	652.612610434077	0
7	3916	656.206747064216	0
7	3921	657.243735334645	0
7	3926	657.872767704928	0
7	3931	659.399070549993	0
7	3938	659.869173953883	0
7	3941	660.030830342046	0
7	3946	660.520285145121	0
7	3951	661.846176048685	0
7	3958	662.843952867236	0
7	3961	663.005609255399	0
7	3966	663.603310196854	0
7	3971	663.793665747192	0
7	3976	664.91767012062	0
7	3981	665.364575612554	0
7	3986	668.290364893421	0
7	3991	668.461527460771	0
7	3998	668.807720272933	0
7	4001	668.969376661096	0
7	4006	669.377850548723	0
7	4011	670.488564776103	0
7	4016	672.372422180392	0
7	4021	673.834482016155	0
7	4026	674.010857680393	0
7	4033	676.430685642709	0
7	4036	676.592342030872	0
7	4041	677.180327665098	0
7	4046	677.571100342461	0
7	4051	678.068845497908	0
7	4056	678.675237798021	0
7	4061	680.72132109532	0
7	4066	682.454819523564	0
7	4071	683.319542673755	0
7	4076	683.599576958105	0
7	4081	684.502645269647	0
7	4086	685.205820966906	0
7	4091	686.075530325626	0
7	4096	687.448532831761	0
7	4101	688.058079129239	0
7	4106	688.531415447948	0
7	4111	691.303349132864	0
7	4118	691.513624943014	0
7	4121	691.675281331177	0
7	4126	691.922686427378	0
7	4131	692.387509583475	0
7	4136	694.436138824768	0
7	4141	695.792581240539	0
7	4146	696.931492483	0
7	4151	697.09473516757	0
7	4156	697.613746660563	0
7	4161	699.427581554843	0
7	4166	699.607638045112	0
7	4173	700.614671058384	0
7	4176	700.776327446547	0
7	4183	704.270650711414	0
7	4186	704.432307099577	0
7	4191	705.734939108675	0
7	4196	706.617234271354	0
7	4201	707.517937499038	0
7	4206	707.787051910592	0
7	4211	708.079787353444	0
7	4219	708.440131066513	0
7	4224	708.601787454676	0
7	4229	708.763443842839	0
7	4232	708.925100231002	0
7	4237	709.146900684894	0
7	4246	710.720134924576	0
7	4249	710.881791312739	0
7	4252	711.043447700902	0
7	4257	711.532702097776	0
7	4262	712.785159675032	0
7	4267	714.351985165358	0
7	4272	714.868310174299	0
7	4277	715.96902720412	0
7	4282	718.57138183746	0
7	4289	719.737822098491	0
7	4292	719.899478486654	0
7	4297	720.252296306053	0
7	4302	720.423585111168	0
7	4307	721.73790903633	0
7	4312	722.636083744966	0
7	4317	723.351138177237	0
7	4322	723.537281074822	0
7	4327	724.575864755188	0
7	4334	726.576936238922	0
7	4337	726.738592627085	0
7	4342	728.194089204952	0
7	4347	729.629677196123	0
7	4352	731.711831769522	0
7	4357	732.283583120275	0
7	4366	733.141652354186	0
7	4369	733.303308742349	0
7	4372	733.464965130512	0
7	4377	734.889464254556	0
7	4382	735.573771046497	0
7	4387	737.211361486289	0
7	4392	738.026108910323	0
7	4397	738.353014831627	0
7	4402	738.548869827234	0
7	4407	740.692895594189	0
7	4412	740.989569325756	0
7	4417	741.674470810806	0
7	4424	743.388767581005	0
7	4427	743.550423969168	0
7	4432	743.765163872956	0
7	4437	745.185092011907	0
7	4444	745.682955268921	0
7	4447	745.844611657084	0
7	4452	746.853799749214	0
7	4457	750.257489988568	0
7	4462	750.513168842852	0
7	4467	751.852670235639	0
7	4474	752.241868355854	0
7	4477	752.403524744017	0
7	4482	753.618891861352	0
7	4487	754.457199996513	0
7	4492	754.65365569867	0
7	4497	756.03829493111	0
7	4502	757.6169447786	0
7	4507	758.476769404908	0
7	4512	759.386051948203	0
7	4517	760.884879605686	0
7	4522	761.576074593189	0
7	4527	762.056710992273	0
7	4532	762.870578460141	0
7	4537	766.501823758764	0
7	4544	767.076739695997	0
7	4549	767.23839608416	0
7	4554	767.400052472323	0
7	4559	767.561708860486	0
7	4562	767.723365248649	0
7	4568	768.223270328194	0
7	4577	768.429335128491	0
7	4580	768.590991516654	0
7	4583	768.752647904817	0
7	4588	770.884902419568	0
7	4593	771.290992235252	0
7	4598	774.512865685527	0
7	4603	776.816585117165	0
7	4608	777.007125944365	0
7	4613	778.662227789513	0
7	4618	779.157211150921	0
7	4623	779.422693685597	0
7	4628	779.95574439254	0
7	4633	781.469514124536	0
7	4638	783.244741975391	0
7	4643	784.970591720494	0
7	4648	785.743420749361	0
7	4653	785.917051914574	0
7	4658	787.795531331453	0
7	4667	789.83671124362	0
7	4670	789.998367631783	0
7	4673	790.160024019946	0
7	4678	791.076843161475	0
7	4683	791.424167249673	0
7	4688	792.66209231386	0
7	4695	793.082201594655	0
7	4698	793.243857982818	0
7	4703	794.371685969042	0
7	4712	795.832081092061	0
7	4715	795.993737480224	0
7	4718	796.155393868387	0
7	4723	797.170470083516	0
7	4728	797.431550977612	0
7	4733	797.620541244905	0
7	4738	797.951342753712	0
7	4743	799.585536238068	0
7	4748	800.307034617887	0
7	4753	801.099027230338	0
7	4758	802.436483810998	0
7	4763	802.864434569467	0
7	4768	803.982693424501	0
7	4773	805.683137055293	0
7	4778	806.247029910515	0
7	4783	808.248262934766	0
7	4788	810.681044083102	0
7	4793	811.455818521695	0
7	4798	812.679983950607	0
7	4803	813.287540646388	0
7	4808	814.072669460334	0
7	4813	815.5272591433	0
7	4818	816.046572660366	0
7	4823	816.791306024491	0
7	4828	817.061033435954	0
7	4833	818.951943523538	0
7	4838	819.790772633537	0
7	4843	821.086546299209	0
7	4848	821.559919903884	0
7	4853	822.977799894546	0
7	4858	824.840712239829	0
7	4863	825.090804371551	0
7	4868	825.311140314595	0
7	4875	825.816584237904	0
7	4878	825.978240626067	0
7	4883	826.732469370086	0
7	4888	827.315001860084	0
7	4893	827.539721704723	0
7	4898	830.419651985192	0
7	4903	832.737931159803	0
7	4908	833.887112965303	0
7	4913	834.187674890266	0
7	4919	834.548018603335	0
7	4924	835.533508134211	0
7	4931	835.729034211196	0
7	4936	835.890690599359	0
7	4939	836.052346987522	0
7	4944	836.489663031582	0
7	4949	837.486650939479	0
7	4954	840.214253738414	0
7	4959	840.826888558326	0
7	4964	841.794764731457	0
7	4971	842.509653156283	0
7	4974	842.671309544446	0
7	4979	843.177447105888	0
7	4984	844.929086880357	0
7	4989	847.620321260965	0
7	4996	848.323395788489	0
7	4999	848.485052176652	0
7	5006	851.053718802458	0
7	5009	851.215375190621	0
7	5014	851.644649820412	0
7	5019	854.903804299133	0
7	5024	855.596755975667	0
7	5029	856.527396706655	0
7	5034	856.748821652095	0
7	5039	857.023995846369	0
7	5044	858.151483417609	0
7	5049	859.41742958863	0
7	5056	860.82638944241	0
7	5059	860.988045830573	0
7	5064	861.830231604793	0
7	5069	862.011439438252	0
7	5074	863.1314843932	0
7	5079	863.38143983643	0
7	5084	864.026510080532	0
7	5089	864.203083725118	0
7	5094	864.705790566882	0
7	5099	867.36752290701	0
7	5104	867.530351137433	0
7	5109	869.040951478223	0
7	5114	871.043678540771	0
7	5119	872.78456310799	0
7	5124	873.238083954547	0
7	5131	873.852589457633	0
7	5134	874.014245845796	0
7	5139	874.329589069798	0
7	5144	875.982546209936	0
7	5149	878.13909731574	0
7	5154	879.799575658351	0
7	5161	883.552638669689	0
7	5164	883.714295057852	0
7	5171	885.121531282133	0
7	5174	885.283187670296	0
7	5179	885.510047156024	0
7	5186	885.851050595705	0
7	5189	886.012706983868	0
7	5194	886.215464442935	0
7	5199	887.551269220543	0
7	5204	888.066255743092	0
7	5209	888.468121814463	0
7	5214	890.690257849873	0
7	5219	891.07194907715	0
7	5224	894.487402692341	0
7	5231	895.53771508837	0
7	5234	895.699371476533	0
7	5239	895.935474774571	0
7	5244	897.2241881958	0
7	5249	897.603328426566	0
7	5254	900.188202696969	0
7	5259	901.208882891294	0
7	5264	902.012539901338	0
7	5270	902.97554811596	0
7	5275	903.666825858878	0
7	5280	904.495145210928	0
7	5285	904.995623965012	0
7	5290	906.600028533358	0
7	5295	908.195081707402	0
7	5300	909.657186218824	0
7	5305	910.375839081544	0
7	5310	913.07023993066	0
7	5317	913.639312921434	0
7	5320	913.800969309597	0
7	5325	915.135511942194	0
7	5330	915.434293929398	0
7	5335	916.135797969807	0
7	5342	916.646438326657	0
7	5345	916.80809471482	0
7	5350	917.389285059395	0
7	5355	920.239895669088	0
7	5362	921.16728890853	0
7	5367	921.328945296693	0
7	5372	921.490601684856	0
7	5377	921.652258073019	0
7	5380	921.813914461182	0
7	5385	922.056933220214	0
7	5390	922.451249748303	0
7	5395	923.135382114459	0
7	5400	924.549479697836	0
7	5407	927.467136917364	0
7	5410	927.628793305527	0
7	5415	929.259963420898	0
7	5420	930.975781778885	0
7	5425	931.798052915229	0
7	5430	932.386624617079	0
7	5435	934.77763105001	0
7	5440	935.10583216565	0
7	5445	939.007595881693	0
7	5450	940.292721911571	0
7	5455	940.638313332877	0
7	5460	941.780505110653	0
7	5465	942.212919183907	0
7	5470	942.624004578157	0
7	5475	943.178323287657	0
7	5480	943.340574590022	0
7	5485	944.6065880528	0
7	5490	945.371336666664	0
7	5495	946.818192253887	0
7	5500	947.705014191122	0
7	5505	947.991995492338	0
7	5510	948.995577612194	0
7	5515	950.646559990425	0
7	5520	952.145885059773	0
7	5525	952.456285866582	0
7	5530	952.816944746638	0
7	5535	953.723499656877	0
7	5542	957.40512128408	0
7	5545	957.566777672243	0
7	5550	958.942608146844	0
7	5555	959.460360963493	0
7	5560	960.482039698163	0
7	5565	961.368901639506	0
7	5570	962.025924849764	0
7	5575	962.1956284312	0
7	5582	963.766559588519	0
7	5585	963.928215976682	0
7	5590	964.555894750333	0
7	5595	965.386041748623	0
7	5600	966.311908919997	0
7	5605	967.035081500402	0
7	5612	967.849561781201	0
7	5615	968.011218169364	0
7	5623	970.288798059538	0
7	5626	970.450454447701	0
7	5631	970.765738320944	0
7	5636	973.576777390792	0
7	5641	975.170830512984	0
7	5646	975.538906256539	0
7	5651	977.201648135106	0
7	5656	977.853394178024	0
7	5661	980.670857973015	0
7	5666	982.148958342888	0
7	5671	982.366172555325	0
7	5676	983.635464935672	0
7	5683	984.084094729032	0
7	5688	984.245751117195	0
7	5691	984.407407505358	0
7	5696	986.958798834201	0
7	5701	987.394637990035	0
7	5706	988.506561058807	0
7	5713	988.760610487981	0
7	5716	988.922266876144	0
7	5721	989.574208636122	0
7	5726	992.34328242746	0
7	5731	993.613667891519	0
7	5736	994.569872523453	0
7	5741	995.307886305672	0
7	5746	997.3815504068	0
7	5751	997.622873804042	0
7	5756	998.124393393131	0
7	5763	998.630227258577	0
7	5766	998.79188364674	0
8	11	0.763330129994	0.045211572732
8	61	10.631152432353	0.159435010978
8	71	11.217082726258	0.137622184645
8	83	12.712451095294	0.079031543276
8	86	12.874107483457	0.198312627604
8	101	14.745973962921	0.134892341495
8	125	15.86228745825	0.134833462562
8	128	16.023943846413	0.228923814314
8	131	16.185600234576	0.358204636809
8	166	21.941951272911	0.101294406829
8	176	22.410241979381	0.03984015319
8	183	22.571898367544	0.14361358135
8	186	22.733554755707	0.194927005462
8	191	22.89521114387	0.112031167974
8	196	23.056867532033	0.068648783471
8	221	28.833214835585	0.034721753181
8	226	28.994871223748	0.029004592176
8	306	44.170944940282	0.117750003218
8	346	55.248850031457	0.074810492043
8	372	57.656724798121	0.091719123759
8	392	60.506711596513	0.093615523575
8	402	61.692054167226	0.057011990443
8	407	61.853710555389	0.120937084409
8	412	62.015366943552	0.106445632397
8	422	65.863809066076	0.03821532512
8	432	66.198327323434	0.139828809122
8	437	66.359983711597	0.025246651894
8	472	72.82641021397	0.058736308093
8	482	73.730830395714	0.001738961825
8	497	79.26904653965	0.107989864403
8	509	80.133989113002	0.027391801166
8	512	80.295645501165	0.182112388369
8	517	80.457301889328	0.131870054992
8	522	80.618958277491	0.091325794094
8	537	81.557628064461	0.155034211199
8	584	94.47665538637	0.121644159623
8	587	94.638311774533	0.198363990346
8	602	96.067126029449	0.034104386987
8	607	96.228782417612	0.0886307409
8	632	99.411677820292	0.023195914022
8	652	102.739532827583	0.029337107564
8	697	110.325569565309	0.054885712844
8	723	113.208602411748	0.105695486912
8	728	113.370258799911	0.096781632292
8	758	118.193556188544	0.018600554113
8	773	120.175798476601	0.045677260664
8	803	123.597134038846	0.026097470651
8	838	129.52724369604	0.076677140708
8	883	138.555988632599	0.119687154135
8	918	144.143548320584	0.05989640852
8	923	144.305204708747	0.086355561629
8	938	146.5841181356	0.073957045356
8	1069	170.211148205056	0.123061747121
8	1084	171.368008353631	0.089865001321
8	1099	172.12349464305	0.046177808013
8	1234	201.238017936018	0.022360402949
8	1274	208.289711240593	0.142968802265
8	1284	208.704367204861	0.07093622974
8	1304	210.753283070402	0.042888934787
8	1324	217.83897752937	0.1605431339
8	1361	221.803985039462	0.05410351019
8	1364	221.965641427625	0.21184176118
8	1425	232.963013319593	0.085684282436
8	1470	238.814144295842	0.048002534353
8	1505	246.895374525478	0.125510688611
8	1540	251.2706737863	0.137698704891
8	1545	251.432330174463	0.094801851071
8	1600	263.443265380024	0.046484768527
8	1625	268.305120678752	0.033517981885
8	1655	273.354327936616	0.131014141176
8	1761	294.939912646527	0.198509394421
8	1763	295.10156903469	0.354823591525
8	1766	295.263225422853	0.409881871794
8	1796	299.620625650758	0.044808177684
8	1846	306.85183173723	0.15061275452
8	1861	309.660236297623	0.139136503296
8	1866	309.821892685786	0.155060841121
8	1871	309.983549073949	0.024931233037
8	1911	318.723497037449	0.051559869623
8	1916	318.885153425612	0.110859804823
8	1926	319.211960945666	0.01613008751
8	1931	319.373617333829	0.154697961904
8	1941	320.089912176255	0.052309864171
8	1981	329.936546452344	0.014995374086
8	2036	342.330992379891	0.008558432414
8	2041	342.492648768054	0.14537773664
8	2051	343.43320569654	0.148584766699
8	2056	343.594862084703	0.118429909831
8	2081	347.373798862428	0.141377747608
8	2086	347.535455250591	0.082794905936
8	2096	349.545296624474	0.109811386246
8	2110	351.170278725291	0.255323124666
8	2112	351.331935113454	0.351814024435
8	2147	358.657329324042	0.006556957707
8	2157	359.424111600676	0.046036239128
8	2172	363.083779971052	0.137861628183
8	2202	367.835007120084	0.087049663227
8	2247	376.26910943954	0.126583287558
8	2252	376.430765827703	0.096966404252
8	2302	385.654509191656	0.051438127263
8	2339	392.090542989924	0.141087363874
8	2346	392.252199378087	0.286562184337
8	2349	392.41385576625	0.254049771793
8	2352	392.575512154413	0.365401127426
8	2387	400.365342591176	0.090003047601
8	2394	400.526998979339	0.137350545334
8	2397	400.688655367502	0.182037261036
8	2412	405.566219492804	0.124459761963
8	2459	413.461414514053	0.014556856853
8	2478	415.844606464807	0.01995343362
8	2483	416.00626285297	0.120169219923
8	2503	419.973409903433	0.027010317227
8	2598	436.651034493592	0.109704047081
8	2603	436.812690881755	0.120090651155
8	2623	440.92655273745	0.066951191503
8	2648	444.086542322298	0.131439077019
8	2708	451.530385946152	0.104329114281
8	2733	459.11553429843	0.086286192515
8	2798	467.784414535622	0.131234001789
8	2819	470.45270903765	0.070501567769
8	2859	475.244213850392	0.066281168733
8	2864	475.405870238555	0.150247696132
8	2869	475.567526626718	0.131895985055
8	2884	476.569377555919	0.035394789245
8	2934	482.949764553158	0.023666712006
8	2994	492.878017919796	0.121054384534
8	3004	495.036276083197	0.16140680543
8	3059	508.273217474223	0.074547708304
8	3064	508.434873862386	0.010551079806
8	3124	522.60471739178	0.077447011011
8	3139	525.160041712683	0.158835672747
8	3149	527.042505706208	0.13562640213
8	3154	527.204162094371	0.088705464674
8	3180	531.957531907941	0.068109504226
8	3195	533.613050536393	0.160037375545
8	3205	534.557995322858	0.048143674014
8	3250	541.6791189468	0.094958782451
8	3260	543.169494879048	0.152089455113
8	3300	548.014467988831	0.102748210612
8	3320	554.882655812896	0.12816537254
8	3360	558.37035561544	0.103320286033
8	3365	558.532012003603	0.034861674747
8	3375	559.293832533879	0.059311250004
8	3387	560.784565195452	0.077743291999
8	3390	560.946221583615	0.235134993646
8	3395	561.107877971778	0.149315674315
8	3415	564.265368816612	0.040604783375
8	3586	596.556533107806	0.091620803509
8	3591	596.718189495969	0.027163123176
8	3671	610.160311146275	0.006354968934
8	3701	619.804747300805	0.120045423307
8	3743	628.179217716157	0.141426732501
8	3746	628.34087410432	0.253373536421
8	3771	630.521250992251	0.042498044852
8	3836	640.575790572902	0.116288399831
8	3937	659.869173953883	0.118186756746
8	3957	662.843952867236	0.040667338416
8	3997	668.807720272933	0.137214841738
8	4032	676.430685642709	0.079281194408
8	4117	691.513624943014	0.136700876171
8	4172	700.614671058384	0.106524216697
8	4182	704.270650711414	0.03883576255
8	4216	708.27847467835	0.044314587664
8	4218	708.440131066513	0.192265571351
8	4223	708.601787454676	0.101786074747
8	4228	708.763443842839	0.159647323983
8	4245	710.720134924576	0.144154754382
8	4248	710.881791312739	0.293945573156
8	4288	719.737822098491	0.144330197768
8	4333	726.576936238922	0.142150551916
8	4365	733.141652354186	0.138089504586
8	4368	733.303308742349	0.25373647446
8	4423	743.388767581005	0.109725658548
8	4443	745.682955268921	0.143110196184
8	4473	752.241868355854	0.079068924415
8	4543	767.076739695997	0.110414365019
8	4548	767.23839608416	0.062581239516
8	4553	767.400052472323	0.146909846017
8	4558	767.561708860486	0.001769319181
8	4576	768.429335128491	0.141930458112
8	4579	768.590991516654	0.287278841422
8	4666	789.83671124362	0.076306839523
8	4669	789.998367631783	0.187050566418
8	4694	793.082201594655	0.141851197672
8	4711	795.832081092061	0.069018459905
8	4714	795.993737480224	0.226494310634
8	4874	825.816584237904	0.094916771136
8	4916	834.386362215172	0.121669361703
8	4930	835.729034211196	0.041539054095
8	4935	835.890690599359	0.096936011543
8	4970	842.509653156283	0.015739975401
8	4995	848.323395788489	0.046231686445
8	5005	851.053718802458	0.056887870044
8	5055	860.82638944241	0.048806846152
8	5130	873.852589457633	0.083938825159
8	5160	883.552638669689	0.13974743507
8	5170	885.121531282133	0.030100912485
8	5185	885.851050595705	0.161649087532
8	5230	895.53771508837	0.095014054271
8	5316	913.639312921434	0.140931719715
8	5341	916.646438326657	0.017253551409
8	5361	921.16728890853	0.080964560769
8	5366	921.328945296693	0.127721694693
8	5371	921.490601684856	0.075209745079
8	5376	921.652258073019	0.053045344171
8	5406	927.467136917364	0.058803212996
8	5541	957.40512128408	0.038625388638
8	5581	963.766559588519	0.066331185372
8	5611	967.849561781201	0.101430906759
8	5622	970.288798059538	0.10720495904
8	5682	984.084094729032	0.082559504257
8	5687	984.245751117195	0.132481028207
8	5712	988.760610487981	0.116116998079
8	5762	998.630227258577	0.114503058262

