version 2
run General-49-20240201-11:04:15-40057
attr configname General
attr datetime 20240201-11:04:15
attr experiment General
attr inifile main.ini
attr iterationvars "$0=2.0, $1=1.7, $2=70"
attr iterationvarsf 2.0,1.7,70-
attr measurement "$0=2.0, $1=1.7, $2=70"
attr network Rete
attr processid 40057
attr repetition 9
attr replication #9
attr resultdir results
attr runnumber 49
attr seedset 49
param Rete.lambda 2.0
param Rete.a 0.3s
param Rete.b 1.7s
param Rete.c 0.1s
param Rete.d 0.3s
param Rete.mu 3.0
param Rete.source2.interArrivalTime exponential(1s/lambda)
param Rete.source2.jobServiceTime exponential(1s/mu)
param Rete.source2.deadline uniform(a,b)
param Rete.server2.j 70
param Rete.server2.V uniform(c,d)

vector 0 Rete.passiveQueue queueLength:vector ETV
attr interpolationmode sample-hold
attr title "queue length, vector"
vector 1 Rete.sink lifeTime:vector ETV
attr interpolationmode none
attr title "lifetime of arrived jobs, vector"
attr unit s
vector 2 Rete.sink totalQueueingTime:vector ETV
attr interpolationmode none
attr title "the total time spent in queues by arrived jobs, vector"
attr unit s
vector 3 Rete.sink queuesVisited:vector ETV
attr interpolationmode none
attr title "the total number of queues visited by arrived jobs, vector"
vector 4 Rete.sink totalServiceTime:vector ETV
attr interpolationmode none
attr title "the total time spent  by arrived jobs, vector"
attr unit s
vector 5 Rete.sink totalDelayTime:vector ETV
attr interpolationmode none
attr title "the total time spent in delay nodes by arrived jobs, vector"
attr unit s
vector 6 Rete.sink delaysVisited:vector ETV
attr interpolationmode none
attr title "the total number of delays visited by arrived jobs, vector"
vector 7 Rete.sink generation:vector ETV
attr interpolationmode none
attr title "the generation of the arrived jobs, vector"
vector 8 Rete.passiveQueue queueingTime:vector ETV
attr interpolationmode none
attr title "queueing time at dequeue, vector"
attr unit s
0	0	0	0
0	40	4.624909194027	1
0	41	4.701116239068	0
0	110	11.999686756669	1
0	111	12.087929343072	0
0	155	16.320923903583	1
0	156	16.385151942789	0
0	160	16.393137429835	1
0	161	16.479742664006	0
0	165	16.564268431648	1
0	166	16.574333385223	0
0	250	26.940540806121	1
0	251	26.95922260539	0
0	270	27.492114738822	1
0	272	27.531662112835	2
0	273	27.563057213671	1
0	276	27.657647934888	0
0	310	33.379600138471	1
0	311	33.387334362082	0
0	361	43.345513607397	1
0	362	43.436376388024	0
0	421	50.929153194904	1
0	422	50.953672357326	0
0	426	51.020278453082	1
0	427	51.048263078543	0
0	441	52.419659836262	1
0	442	52.511820852558	0
0	476	58.11090699189	1
0	478	58.165852236515	2
0	479	58.202150798248	1
0	482	58.296741519465	0
0	516	61.167626820921	1
0	517	61.248295940515	0
0	526	61.703744876393	1
0	527	61.750748917321	0
0	551	64.190169298279	1
0	552	64.262192773315	0
0	566	65.835201106522	1
0	567	65.924682022704	0
0	586	67.362475374331	1
0	587	67.383354329659	0
0	651	76.660752894647	1
0	652	76.68090302212	0
0	703	82.43645116283	1
0	704	82.628222331222	0
0	727	85.318114652406	1
0	728	85.378681491767	0
0	742	87.461542111489	1
0	743	87.522366118946	0
0	762	89.506505930526	1
0	763	89.59388274289	0
0	777	90.27735305985	1
0	779	90.310245856119	2
0	780	90.369288264908	1
0	783	90.463878986125	0
0	817	93.880590682261	1
0	818	93.906399504239	0
0	822	93.923662813158	1
0	823	94.000990225456	0
0	827	94.068604927061	1
0	828	94.095580946673	0
0	842	95.511576652593	1
0	844	95.548904834437	2
0	845	95.584673522625	1
0	848	95.679264243842	0
0	942	105.6427995781	1
0	943	105.688932226856	0
0	957	106.255831360033	1
0	959	106.290211431324	2
0	960	106.344829172602	1
0	963	106.439419893819	0
0	967	106.530123555746	1
0	968	106.534010615036	0
0	1012	110.711185511759	1
0	1013	110.736458708821	0
0	1022	111.004139631265	1
0	1023	111.04739473135	0
0	1138	125.139952502802	1
0	1139	125.204758058835	0
0	1153	126.098147701876	1
0	1154	126.180112791093	0
0	1243	133.839633956945	1
0	1244	133.878632656717	0
0	1263	135.907976635711	1
0	1264	135.951915755891	0
0	1278	137.494699851161	1
0	1279	137.519177906509	0
0	1283	137.586970017304	1
0	1284	137.613768627726	0
0	1288	137.62001710479	1
0	1289	137.708359348943	0
0	1313	139.275848755563	1
0	1314	139.312956408965	0
0	1318	139.372526764971	1
0	1319	139.407547130182	0
0	1348	141.819371345988	1
0	1349	141.838899109585	0
0	1373	145.222682333614	1
0	1375	145.236003300981	2
0	1377	145.24462674221	3
0	1378	145.246846118108	2
0	1381	145.341436839325	1
0	1384	145.436027560542	0
0	1449	154.061220843259	1
0	1450	154.101619033066	0
0	1484	157.702003411564	1
0	1485	157.790304676273	0
0	1529	162.724129112438	1
0	1530	162.782549222617	0
0	1549	164.293003948789	1
0	1550	164.313763079689	0
0	1559	165.043511018619	1
0	1560	165.105096787018	0
0	1574	166.701617550535	1
0	1575	166.737789073452	0
0	1589	167.602942936145	1
0	1590	167.634347032016	0
0	1639	171.622616872208	1
0	1640	171.66409536457	0
0	1644	171.70208489428	1
0	1645	171.758686085787	0
0	1659	172.881287183889	1
0	1660	172.905984367146	0
0	1674	174.14634961676	1
0	1675	174.21836640426	0
0	1679	174.29020645778	1
0	1680	174.312957125477	0
0	1689	174.625851960628	1
0	1691	174.691519452346	2
0	1692	174.720134540447	1
0	1695	174.814725261664	0
0	1704	175.321419394735	1
0	1705	175.343275297782	0
0	1749	181.901683210287	1
0	1750	181.981965978718	0
0	1805	189.317639080937	1
0	1806	189.410217341944	0
0	1840	194.262494463017	1
0	1841	194.297673858627	0
0	1860	197.10865483783	1
0	1861	197.171252935754	0
0	1920	200.430463131761	1
0	1921	200.501456331851	0
0	1970	204.407694001908	1
0	1971	204.416506308601	0
0	1995	206.841663463752	1
0	1996	206.864381459623	0
0	2040	212.75649992724	1
0	2041	212.842709129698	0
0	2065	214.690381112449	1
0	2066	214.753151856265	0
0	2090	218.823296716171	1
0	2092	218.864361189479	2
0	2093	218.870941348478	1
0	2096	218.965532069695	0
0	2100	219.058968338021	1
0	2101	219.060122790912	0
0	2111	219.50664827714	1
0	2112	219.585998240328	0
0	2161	224.547711680446	1
0	2162	224.634859494458	0
0	2196	227.434794775248	1
0	2198	227.477474709343	2
0	2199	227.49781438287	1
0	2202	227.592405104087	0
0	2211	227.959725847588	1
0	2212	227.967756174287	0
0	2251	231.362980305143	1
0	2252	231.429453627485	0
0	2291	236.218849221172	1
0	2292	236.270337784848	0
0	2321	240.837961176597	1
0	2322	240.855706784581	0
0	2356	247.099978650273	1
0	2357	247.179106808178	0
0	2361	247.208029622658	1
0	2362	247.273697529395	0
0	2366	247.274257969	1
0	2368	247.322031011081	2
0	2369	247.368288250612	1
0	2372	247.462878971829	0
0	2446	256.398706057298	1
0	2447	256.446883508934	0
0	2458	258.719103846287	1
0	2460	258.897392000373	2
0	2461	258.946590715623	1
0	2463	259.04118143684	0
0	2477	260.375675943394	1
0	2478	260.4020499873	0
0	2532	264.623507300362	1
0	2533	264.667932031003	0
0	2552	267.322923123085	1
0	2553	267.341294023843	0
0	2557	267.411194034425	1
0	2558	267.43588474506	0
0	2597	274.795015167831	1
0	2598	274.866840023531	0
0	2607	275.185762333158	1
0	2608	275.234733780388	0
0	2622	276.087514418727	1
0	2623	276.170477325053	0
0	2652	278.176596989136	1
0	2654	278.203736730404	2
0	2655	278.252434885782	1
0	2658	278.347025606999	0
0	2707	285.21116913119	1
0	2708	285.243470189071	0
0	2727	286.608578234004	1
0	2728	286.682616822767	0
0	2732	286.707578705536	1
0	2733	286.777207543984	0
0	2742	288.602924950673	1
0	2743	288.609355987401	0
0	2747	288.690595164342	1
0	2748	288.703946708618	0
0	2752	288.716458697815	1
0	2753	288.798537429835	0
0	2757	288.81974679116	1
0	2759	288.854422974439	2
0	2760	288.893128151052	1
0	2763	288.987718872269	0
0	2787	289.9252578345	1
0	2788	289.996549712624	0
0	2853	295.09693395932	1
0	2854	295.109863442696	0
0	2878	298.223562734899	1
0	2879	298.286844818263	0
0	2903	303.473007813111	1
0	2905	303.475729817672	2
0	2906	303.554121299504	1
0	2909	303.648712020721	0
0	3068	318.50348357821	1
0	3069	318.54824672866	0
0	3108	323.272148211732	1
0	3109	323.332402130145	0
0	3179	331.963510573602	1
0	3181	331.976040691505	2
0	3182	332.036142595397	1
0	3186	332.082563032572	2
0	3188	332.12889675174	3
0	3189	332.130733316614	2
0	3192	332.225324037831	1
0	3195	332.319914759048	0
0	3204	332.604002735685	1
0	3205	332.632048456746	0
0	3229	338.756648887588	1
0	3230	338.778115797631	0
0	3279	342.665031594748	1
0	3280	342.74798051597	0
0	3294	343.666564029879	1
0	3295	343.728583272703	0
0	3379	352.334214242079	1
0	3380	352.421540955147	0
0	3389	353.415982025829	1
0	3390	353.501555926039	0
0	3404	354.939352859838	1
0	3405	355.01663870095	0
0	3429	358.043262338563	1
0	3431	358.087152153071	2
0	3432	358.100017588995	1
0	3435	358.194608310212	0
0	3444	358.532999417189	1
0	3445	358.541959820347	0
0	3504	366.166948882465	1
0	3505	366.249535759394	0
0	3511	366.364992744686	1
0	3513	366.469810995829	2
0	3514	366.596412985798	1
0	3516	366.691003707015	0
0	3530	368.484883589721	1
0	3531	368.495546219149	0
0	3535	368.568060385455	1
0	3536	368.590136940366	0
0	3575	372.667050671827	1
0	3576	372.744988820872	0
0	3590	374.480874486792	1
0	3591	374.522890275627	0
0	3635	378.308793966432	1
0	3636	378.3155652616	0
0	3645	379.324761055014	1
0	3646	379.402603505605	0
0	3650	379.405750583957	1
0	3652	379.443061386137	2
0	3654	379.479688466852	3
0	3655	379.497194226822	2
0	3658	379.591784948039	1
0	3661	379.686375669256	0
0	3670	380.796739894604	1
0	3671	380.830993371969	0
0	3685	382.284970135468	1
0	3687	382.30592937369	2
0	3689	382.306164235053	3
0	3690	382.371694687984	2
0	3693	382.466285409201	1
0	3696	382.560876130418	0
0	3700	382.561506303168	1
0	3701	382.655466851635	0
0	3755	388.918728507473	1
0	3756	388.930286435326	0
0	3765	389.224230611663	1
0	3766	389.256520628622	0
0	3775	390.436404218867	1
0	3776	390.464728210629	0
0	3871	401.364952100746	1
0	3872	401.428947234824	0
0	3891	404.428436174556	1
0	3892	404.499447222129	0
0	3916	408.619069930566	1
0	3917	408.626972427914	0
0	3931	409.490868625736	1
0	3932	409.564609487948	0
0	3971	412.319560203076	1
0	3973	412.358706807914	2
0	3974	412.412403794349	1
0	3977	412.506994515566	0
0	3991	412.802075433206	1
0	3992	412.875246668637	0
0	4011	414.046755292795	1
0	4012	414.057611608185	0
0	4026	414.498631779217	1
0	4027	414.503663795884	0
0	4031	414.512000425215	1
0	4033	414.564818165595	2
0	4034	414.598254517101	1
0	4037	414.692845238318	0
0	4051	415.033675066298	1
0	4052	415.089583470464	0
0	4076	418.282344680649	1
0	4077	418.307094291227	0
0	4111	422.203214787031	1
0	4112	422.220702904675	0
0	4146	429.171393850382	1
0	4147	429.228582970118	0
0	4186	434.014692254691	1
0	4187	434.040411977379	0
0	4252	442.049479238237	1
0	4253	442.103918938381	0
0	4267	442.904320264148	1
0	4268	442.978095487296	0
0	4287	444.177129908949	1
0	4288	444.182423910445	0
0	4307	445.552795389356	1
0	4308	445.582711229722	0
0	4317	447.19662112303	1
0	4318	447.214691485097	0
0	4327	447.324832662814	1
0	4328	447.409360433709	0
0	4337	447.716295698627	1
0	4338	447.764938991835	0
0	4367	448.819543510866	1
0	4368	448.84160108157	0
0	4372	448.880841888247	1
0	4373	448.936191802787	0
0	4402	452.54301182504	1
0	4403	452.634135864253	0
0	4407	452.727134044663	1
0	4408	452.72872658547	0
0	4422	453.118645412566	1
0	4423	453.183081163859	0
0	4467	457.18410286368	1
0	4469	457.201598066019	2
0	4470	457.208494835556	1
0	4473	457.303085556773	0
0	4562	469.190694926613	1
0	4565	469.531765457111	0
0	4683	480.068124376112	1
0	4684	480.10047087114	0
0	4708	481.490416049229	1
0	4710	481.498722466208	2
0	4711	481.572501515653	1
0	4714	481.66709223687	0
0	4718	481.698471397944	1
0	4720	481.75932655439	2
0	4721	481.761682958087	1
0	4725	481.802052138274	2
0	4726	481.856273679304	1
0	4729	481.950864400521	0
0	4753	485.140133601942	1
0	4754	485.157788747816	0
0	4783	488.832173877888	1
0	4784	488.848886592178	0
0	4793	489.92459368283	1
0	4795	489.934986358274	2
0	4796	489.9712697341	1
0	4799	490.065860455317	0
0	4828	491.734885759141	1
0	4829	491.808536176987	0
0	4848	493.266767035874	1
0	4850	493.326405711562	2
0	4851	493.337833117721	1
0	4854	493.432423838938	0
0	4974	510.974409525208	1
0	4975	511.052328746421	0
0	5004	513.797996061684	1
0	5005	513.891602156266	0
0	5009	513.973575856013	1
0	5010	513.986192877483	0
0	5079	520.761946708287	1
0	5080	520.827780756215	0
0	5084	520.828668817809	1
0	5085	520.922371477432	0
0	5089	520.981848415069	1
0	5090	521.016962198649	0
0	5099	521.174078822911	1
0	5100	521.210935903554	0
0	5114	523.523658761127	1
0	5115	523.543748463168	0
0	5124	523.720801423987	1
0	5126	523.74313863514	2
0	5127	523.757584701555	1
0	5130	523.852175422772	0
0	5134	523.935200537414	1
0	5135	523.946766143989	0
0	5174	527.119821664984	1
0	5176	527.140079003949	2
0	5178	527.154736466671	3
0	5179	527.155412739619	2
0	5182	527.250003460836	1
0	5185	527.344594182053	0
0	5266	534.42578577288	1
0	5268	534.592981786947	2
0	5269	534.628200558609	1
0	5271	534.722791279826	0
0	5280	535.573109893909	1
0	5281	535.610350257032	0
0	5330	539.075137764527	1
0	5331	539.142299436795	0
0	5335	539.17322162657	1
0	5336	539.236890158012	0
0	5370	543.24333449906	1
0	5371	543.317643929099	0
0	5410	550.337532413643	1
0	5411	550.414081422923	0
0	5425	551.449567823201	1
0	5427	551.471873143124	2
0	5428	551.49308662971	1
0	5432	551.513123747619	2
0	5433	551.587677350927	1
0	5436	551.682268072144	0
0	5440	551.696783467556	1
0	5442	551.769054362764	2
0	5443	551.776858793361	1
0	5447	551.798964202642	2
0	5449	551.815558713592	3
0	5450	551.871449514578	2
0	5453	551.966040235795	1
0	5456	552.060630957012	0
0	5465	552.451807713416	1
0	5466	552.471921773828	0
0	5490	556.016742410207	1
0	5491	556.063860144947	0
0	5510	558.942232874943	1
0	5511	558.996983870289	0
0	5565	564.73330865535	1
0	5567	564.736327915813	2
0	5568	564.825657004464	1
0	5571	564.920247725681	0
0	5580	565.24292610107	1
0	5581	565.272050033717	0
0	5585	565.357216719609	1
0	5586	565.366640754934	0
0	5615	569.010430580435	1
0	5619	569.158371890897	2
0	5621	569.29415007923	3
0	5622	569.305792590357	2
0	5624	569.400383311574	1
0	5627	569.494974032791	0
0	5641	571.449200139502	1
0	5642	571.528078545646	0
0	5661	574.288719605758	1
0	5663	574.356322298782	2
0	5664	574.38075477725	1
0	5667	574.475345498467	0
0	5716	581.171130042219	1
0	5717	581.253090451829	0
0	5726	581.48498980846	1
0	5727	581.514462761042	0
0	5731	581.551384144526	1
0	5732	581.609053482259	0
0	5811	588.93105074529	1
0	5812	589.008220423119	0
0	5831	590.485148858371	1
0	5832	590.564201353477	0
0	5841	590.87191769463	1
0	5842	590.929668355988	0
0	5876	596.035600802967	1
0	5877	596.105124281831	0
0	5961	604.812202924156	1
0	5962	604.881613501741	0
0	5987	607.217551024711	1
0	5988	607.279866266073	0
0	5997	607.551202278329	1
0	5998	607.639009738564	0
0	6022	611.671198490423	1
0	6024	611.727169109089	2
0	6025	611.737216601385	1
0	6028	611.831807322602	0
0	6042	612.372924249375	1
0	6043	612.391307539799	0
0	6047	612.44870522017	1
0	6048	612.485898261016	0
0	6077	614.816596539518	1
0	6078	614.869106102127	0
0	6092	616.490771947751	1
0	6093	616.566516236621	0
0	6122	618.528328125187	1
0	6123	618.537038362686	0
0	6247	631.015400697721	1
0	6248	631.09806433292	0
0	6257	632.670471882367	1
0	6259	632.688448187247	2
0	6260	632.730100378394	1
0	6263	632.824691099611	0
0	6277	633.42215995775	1
0	6278	633.442566079444	0
0	6287	633.865649209355	1
0	6288	633.908316454823	0
0	6297	634.955253108147	1
0	6298	634.971949969628	0
0	6323	636.595873927598	1
0	6324	636.610769212148	0
0	6333	636.819942960075	1
0	6334	636.894350928782	0
0	6358	638.954854737489	1
0	6359	639.034527768584	0
0	6368	640.053314101552	1
0	6369	640.075007457427	0
0	6453	648.683316265409	1
0	6454	648.691227761239	0
0	6493	653.844531026446	1
0	6494	653.92088183365	0
0	6523	656.052825858839	1
0	6524	656.115700794331	0
0	6543	657.63056059758	1
0	6544	657.63523058015	0
0	6553	658.330704342681	1
0	6554	658.375807678653	0
0	6658	668.915452863969	1
0	6659	668.955914631834	0
0	6674	669.530353275957	1
0	6675	669.622914647522	0
0	6679	669.673660811391	1
0	6680	669.717505368739	0
0	6699	674.717728397177	1
0	6701	674.730488045508	2
0	6702	674.793869336941	1
0	6705	674.888460058158	0
0	6734	676.51600447885	1
0	6735	676.532016482207	0
0	6769	680.288244124275	1
0	6771	680.345586657458	2
0	6772	680.363222817738	1
0	6775	680.457813538955	0
0	6864	689.151894770771	1
0	6865	689.186531848839	0
0	6919	696.096881258221	1
0	6920	696.188210300228	0
0	6944	698.265889581883	1
0	6945	698.344002520977	0
0	7014	707.884972714503	1
0	7016	707.889104462802	2
0	7017	707.907343278933	1
0	7022	708.254220505337	0
0	7040	709.001657286542	1
0	7041	709.07495715231	0
0	7045	709.166615126347	1
0	7046	709.169547873527	0
0	7140	717.992587797975	1
0	7141	718.057440000659	0
0	7160	720.452546735091	1
0	7161	720.541845529835	0
0	7175	721.084844852643	1
0	7177	721.139390188078	2
0	7178	721.177662010536	1
0	7182	721.244317170903	2
0	7183	721.272252731753	1
0	7187	721.308812509281	2
0	7188	721.36684345297	1
0	7191	721.461434174187	0
0	7200	722.884513805857	1
0	7201	722.889210442756	0
0	7215	723.540075825088	1
0	7216	723.555337384915	0
0	7220	723.620679053424	1
0	7221	723.649928106132	0
0	7230	724.056407809442	1
0	7231	724.097966451616	0
0	7240	724.573076203251	1
0	7241	724.665525910072	0
0	7265	728.401436677273	1
0	7266	728.453720900101	0
0	7290	730.564609340243	1
0	7291	730.60211740928	0
0	7310	732.895282383061	1
0	7311	732.903366498408	0
0	7315	732.995934378655	1
0	7316	732.997957219625	0
0	7320	733.050192413395	1
0	7321	733.092547940842	0
0	7360	737.170324622785	1
0	7361	737.181737999839	0
0	7370	737.408005023514	1
0	7373	737.696444065985	0
0	7376	737.782176205932	1
0	7377	737.791034787202	0
0	7416	740.833611448132	1
0	7417	740.834996042594	0
0	7421	740.859071300811	1
0	7423	740.860672381625	2
0	7424	740.929586763811	1
0	7428	741.002618450602	2
0	7429	741.024177485028	1
0	7432	741.118768206245	0
0	7436	741.138835277771	1
0	7437	741.213358927462	0
0	7451	743.734661324443	1
0	7453	743.743603415263	2
0	7455	743.785328051337	3
0	7456	743.793899175228	2
0	7459	743.888489896445	1
0	7462	743.983080617662	0
0	7481	744.939510266141	1
0	7482	744.99743206781	0
0	7541	752.066664787919	1
0	7542	752.103385685796	0
0	7556	753.376766651005	1
0	7557	753.40686890999	0
0	7566	753.72463238804	1
0	7567	753.750086351643	0
0	7596	756.513660029838	1
0	7597	756.599180160481	0
0	7601	756.608783238704	1
0	7602	756.693770881698	0
0	7656	762.507914521249	1
0	7657	762.561655424593	0
0	7666	762.903981061622	1
0	7667	762.938535993452	0
0	7676	763.239458109652	1
0	7677	763.33103448452	0
0	7681	763.422780565892	1
0	7682	763.425625205737	0
0	7691	763.72468881714	1
0	7692	763.735389644214	0
0	7711	764.956224202217	1
0	7712	765.038714152637	0
0	7737	769.08653181731	1
0	7738	769.099261630217	0
0	7742	769.182024348995	1
0	7743	769.193852351434	0
0	7877	786.932044879706	1
0	7878	786.986548946419	0
0	7912	791.518833613016	1
0	7913	791.542563538596	0
0	7922	791.710492676777	1
0	7923	791.760974179751	0
0	7952	794.286884703366	1
0	7953	794.368752091652	0
0	7957	794.377317873038	1
0	7958	794.463342812869	0
0	7997	798.11130813483	1
0	7998	798.135214488338	0
0	8012	800.074190330933	1
0	8013	800.077062136311	0
0	8103	809.013565217771	1
0	8104	809.05212542975	0
0	8108	809.063972764201	1
0	8110	809.11479612176	2
0	8111	809.146716150967	1
0	8115	809.176808060285	2
0	8116	809.241306872184	1
0	8119	809.335897593401	0
0	8153	811.544120596412	1
0	8154	811.614876661458	0
0	8158	811.635464435461	1
0	8159	811.709467382675	0
0	8193	813.968590280439	1
0	8194	814.017952366166	0
0	8243	819.345578198596	1
0	8244	819.408172954414	0
0	8273	821.199856558344	1
0	8274	821.20910988599	0
0	8313	826.661417619273	1
0	8314	826.673743893214	0
0	8363	833.825304702353	1
0	8364	833.832600021944	0
0	8378	834.309452883144	1
0	8379	834.371655118302	0
0	8383	834.45907405387	1
0	8384	834.466245839519	0
0	8403	835.925663768128	1
0	8404	835.996751392145	0
0	8408	836.060700550271	1
0	8409	836.091342113362	0
0	8413	836.106232185276	1
0	8414	836.185932834579	0
0	8425	836.834592472065	1
0	8426	836.934776621072	0
0	8439	838.50218663212	1
0	8440	838.59579796076	0
0	8504	845.268671774501	1
0	8505	845.298572175464	0
0	8594	853.264626208256	1
0	8595	853.328087964103	0
0	8619	855.695645487987	1
0	8620	855.707453352861	0
0	8634	857.90804920718	1
0	8635	857.956758951024	0
0	8659	860.759491473414	1
0	8660	860.845189525047	0
0	8694	867.2621453677	1
0	8695	867.280857395064	0
0	8744	874.778079190325	1
0	8745	874.802465869305	0
0	8776	876.298085272902	1
0	8777	876.468564539287	0
0	8780	876.517268599218	1
0	8781	876.563155260504	0
0	8800	878.147445116477	1
0	8801	878.166361276209	0
0	8830	879.619278054184	1
0	8831	879.685422138465	0
0	8850	880.516182883382	1
0	8851	880.583671496997	0
0	8855	880.631820579775	1
0	8856	880.678262218214	0
0	8875	881.853376308249	1
0	8876	881.931509208053	0
0	8885	882.166902734068	1
0	8886	882.191874893488	0
0	8930	885.637176709529	1
0	8931	885.67169156542	0
0	9127	909.157774052475	1
0	9128	909.26833912992	0
0	9141	909.962107056884	1
0	9142	910.025850128358	0
0	9171	913.63089303118	1
0	9172	913.69247778916	0
0	9191	915.531769327013	1
0	9193	915.55822850694	2
0	9194	915.580398090956	1
0	9197	915.674988812173	0
0	9251	919.243759044489	1
0	9253	919.290973541977	2
0	9255	919.296907083118	3
0	9257	919.322438417225	4
0	9258	919.33024359518	3
0	9261	919.424834316397	2
0	9264	919.519425037614	1
0	9267	919.614015758831	0
0	9311	924.003253683687	1
0	9312	924.071212112459	0
0	9321	924.308826850095	1
0	9322	924.391465848127	0
0	9336	926.787114865161	1
0	9337	926.804140576807	0
0	9391	932.758594071876	1
0	9392	932.847824169973	0
0	9416	936.061942255818	1
0	9417	936.097102124234	0
0	9446	939.657095694695	1
0	9447	939.673441400513	0
0	9451	939.724216599448	1
0	9452	939.76803212173	0
0	9507	945.093125883545	1
0	9508	945.163600806098	0
0	9512	945.197039461809	1
0	9513	945.258191527315	0
0	9552	947.310421928226	1
0	9554	947.320682607389	2
0	9555	947.334397524528	1
0	9558	947.428988245745	0
0	9597	951.654496232752	1
0	9598	951.733254310461	0
0	9622	953.115669243888	1
0	9623	953.183446038822	0
0	9632	953.436301014969	1
0	9633	953.48490399221	0
0	9642	954.335358203093	1
0	9643	954.408212645568	0
0	9677	956.787565463594	1
0	9678	956.875939520609	0
0	9702	961.196497390477	1
0	9703	961.199250454309	0
0	9732	963.814251093423	1
0	9733	963.843397400269	0
0	9757	965.604086241837	1
0	9758	965.662615765863	0
0	9762	965.698230515413	1
0	9763	965.75720648708	0
0	9782	967.755902588643	1
0	9783	967.795022460027	0
0	9822	970.317485263908	1
0	9823	970.400991855648	0
0	9827	970.407950496194	1
0	9831	970.524546246586	2
0	9833	970.63739484927	3
0	9835	970.737220991331	4
0	9836	970.747869082052	3
0	9838	970.842459803269	2
0	9841	970.937050524486	1
0	9844	971.031641245703	0
0	9858	972.273640427307	1
0	9859	972.349038763805	0
0	9873	973.941805801543	1
0	9874	973.999889514343	0
0	9893	975.811018559154	1
0	9894	975.841340583002	0
0	9988	990.580086917096	1
0	9990	990.595634099712	2
0	9991	990.666664548585	1
0	9994	990.761255269802	0
0	9998	990.851937776073	1
0	9999	990.855845991019	0
0	10018	992.675684212146	1
0	10019	992.768749931446	0
0	10028	993.150812635311	1
0	10029	993.216919746949	0
0	10038	993.434606688969	1
0	10039	993.489513297518	0
0	10048	993.79474984048	1
0	10049	993.81506631148	0
0	10058	994.133439033215	1
0	10059	994.19464029873	0
0	10088	998.59099540525	1
0	10089	998.604085509414	0
0	10098	998.931159178652	1
0	10099	998.962516700062	0
0	10113	999.65575772576	1
0	10114	999.743763664661	0
1	5	0.273617564383	0.094590721217
1	10	1.577732251453	0.094590721217
1	15	1.685701854063	0.094590721217
1	20	2.79668130164	0.094590721217
1	25	3.515748299544	0.094590721217
1	30	4.09061177078	0.094590721217
1	35	4.282740625734	0.094590721217
1	42	4.701116239068	0.094590721217
1	45	4.795706960285	0.170797766258
1	50	5.115393831921	0.094590721217
1	55	5.788430540048	0.094590721217
1	60	5.906560029143	0.094590721217
1	65	6.007733404874	0.094590721217
1	70	6.742037896238	0.094590721217
1	75	7.651184490269	0.094590721217
1	80	8.783974130892	0.094590721217
1	85	10.020397497968	0.094590721217
1	90	10.659836293543	0.094590721217
1	95	11.246149924589	0.094590721217
1	100	11.591505347646	0.094590721217
1	105	11.796040481983	0.094590721217
1	112	12.087929343072	0.094590721217
1	115	12.182520064289	0.18283330762
1	120	12.905109987626	0.094590721217
1	125	13.097758029408	0.094590721217
1	130	14.029379227725	0.094590721217
1	135	14.284529921735	0.094590721217
1	140	14.414653009474	0.094590721217
1	145	14.522659979367	0.094590721217
1	150	16.159953961881	0.094590721217
1	157	16.385151942789	0.094590721217
1	162	16.479742664006	0.158818760423
1	167	16.574333385223	0.181195955388
1	170	16.66892410644	0.104655674792
1	175	17.135411911697	0.094590721217
1	180	17.32251443555	0.094590721217
1	185	18.568197017181	0.094590721217
1	190	19.1733706748	0.094590721217
1	195	19.515591431723	0.094590721217
1	200	20.130422854377	0.094590721217
1	205	20.671150632787	0.094590721217
1	210	22.103755035066	0.094590721217
1	215	22.444171423289	0.094590721217
1	220	22.910360091908	0.094590721217
1	225	24.417388843999	0.094590721217
1	230	24.636817547379	0.094590721217
1	235	25.359027115978	0.094590721217
1	240	25.632080175443	0.094590721217
1	245	25.774327933688	0.094590721217
1	252	26.95922260539	0.094590721217
1	255	27.053813326607	0.113272520486
1	260	27.180260224883	0.094590721217
1	265	27.382629346817	0.094590721217
1	274	27.563057213671	0.094590721217
1	277	27.657647934888	0.165533196066
1	280	27.752238656105	0.22057654327
1	285	28.758068005621	0.094590721217
1	290	28.902905394221	0.094590721217
1	295	29.017471305889	0.094590721217
1	300	30.224987654548	0.094590721217
1	305	32.459526573469	0.094590721217
1	312	33.387334362082	0.094590721217
1	315	33.481925083299	0.102324944828
1	320	33.98113497557	0.094590721217
1	325	34.786340625253	0.094590721217
1	330	37.094311412446	0.094590721217
1	335	38.762186230686	0.094590721217
1	340	40.168221475898	0.094590721217
1	345	40.631186712989	0.094590721217
1	350	41.59648317201	0.094590721217
1	356	42.16630087371	0.094590721217
1	363	43.436376388024	0.094590721217
1	366	43.530967109241	0.185453501844
1	371	43.988047406479	0.094590721217
1	376	45.610528214152	0.094590721217
1	381	45.860187078444	0.094590721217
1	386	46.56047009629	0.094590721217
1	391	46.997533849016	0.094590721217
1	396	48.293335207653	0.094590721217
1	401	48.530270279114	0.094590721217
1	406	49.66343255315	0.094590721217
1	411	49.990734155871	0.094590721217
1	416	50.729404232584	0.094590721217
1	423	50.953672357326	0.094590721217
1	428	51.048263078543	0.119109883639
1	431	51.14285379976	0.122575346678
1	436	51.38520275112	0.094590721217
1	443	52.511820852558	0.094590721217
1	446	52.606411573775	0.186751737513
1	451	52.905858420865	0.094590721217
1	456	55.129213632306	0.094590721217
1	461	55.995868078693	0.094590721217
1	466	57.222981546449	0.094590721217
1	471	57.642456421095	0.094590721217
1	480	58.202150798248	0.094590721217
1	483	58.296741519465	0.185834527575
1	486	58.391332240682	0.225480004167
1	491	58.754633650868	0.094590721217
1	496	59.15354172748	0.094590721217
1	501	59.88537771849	0.094590721217
1	506	59.992999061253	0.094590721217
1	511	60.185734572623	0.094590721217
1	518	61.248295940515	0.094590721217
1	521	61.342886661732	0.175259840811
1	528	61.750748917321	0.094590721217
1	531	61.845339638538	0.141594762145
1	536	62.99903611716	0.094590721217
1	541	63.146767788865	0.094590721217
1	546	63.782101859646	0.094590721217
1	553	64.262192773315	0.094590721217
1	556	64.356783494532	0.166614196253
1	561	65.174359558365	0.094590721217
1	568	65.924682022704	0.094590721217
1	571	66.019272743921	0.184071637399
1	576	66.436676756552	0.094590721217
1	581	67.014435654164	0.094590721217
1	588	67.383354329659	0.094590721217
1	591	67.477945050876	0.115469676545
1	596	67.652697932854	0.094590721217
1	601	68.972769319282	0.094590721217
1	606	69.229897797508	0.094590721217
1	611	69.716014160863	0.094590721217
1	616	70.963507073757	0.094590721217
1	621	73.247960553792	0.094590721217
1	626	73.90317240443	0.094590721217
1	631	74.061445889407	0.094590721217
1	636	74.778039502068	0.094590721217
1	641	75.229116330201	0.094590721217
1	646	76.311038325263	0.094590721217
1	653	76.68090302212	0.094590721217
1	656	76.775493743337	0.11474084869
1	661	77.418077058779	0.094590721217
1	666	78.090913206229	0.094590721217
1	671	78.584972821674	0.094590721217
1	676	78.687304254137	0.094590721217
1	681	79.146312300112	0.094590721217
1	686	79.968428875754	0.094590721217
1	691	81.72004151447	0.094590721217
1	696	81.905383170938	0.094590721217
1	701	82.375935826035	0.094590721217
1	707	82.722813052439	0.286361889609
1	712	83.07891310786	0.094590721217
1	717	84.267988426048	0.094590721217
1	722	84.984590731353	0.094590721217
1	729	85.378681491767	0.094590721217
1	732	85.473272212984	0.155157560578
1	737	86.480981032841	0.094590721217
1	744	87.522366118946	0.094590721217
1	747	87.616956840163	0.155414728674
1	752	88.177345085255	0.094590721217
1	757	88.443329332268	0.094590721217
1	764	89.59388274289	0.094590721217
1	767	89.688473464107	0.181967533581
1	772	89.978917738307	0.094590721217
1	781	90.369288264908	0.094590721217
1	784	90.463878986125	0.186525926275
1	787	90.558469707342	0.248223851223
1	792	91.220466416055	0.094590721217
1	797	91.621189794844	0.094590721217
1	802	92.038953527549	0.094590721217
1	807	92.331467327521	0.094590721217
1	812	93.628247247131	0.094590721217
1	819	93.906399504239	0.094590721217
1	824	94.000990225456	0.120399543195
1	829	94.095580946673	0.171918133515
1	832	94.19017166789	0.121566740829
1	837	94.907624166404	0.094590721217
1	846	95.584673522625	0.094590721217
1	849	95.679264243842	0.167687591249
1	852	95.773854965059	0.224950130622
1	857	96.54469532201	0.094590721217
1	862	97.093015818051	0.094590721217
1	867	97.454899399489	0.094590721217
1	872	97.601539211333	0.094590721217
1	877	98.05553606256	0.094590721217
1	882	98.358226380462	0.094590721217
1	887	98.563559779651	0.094590721217
1	892	98.919347464808	0.094590721217
1	897	99.726772038155	0.094590721217
1	902	101.159041585329	0.094590721217
1	907	101.682891442345	0.094590721217
1	912	102.08792026576	0.094590721217
1	917	102.399486017766	0.094590721217
1	922	103.535112150752	0.094590721217
1	927	103.854470013807	0.094590721217
1	932	104.399996134	0.094590721217
1	937	105.352120697891	0.094590721217
1	944	105.688932226856	0.094590721217
1	947	105.783522948073	0.140723369973
1	952	106.203946814678	0.094590721217
1	961	106.344829172602	0.094590721217
1	964	106.439419893819	0.183588533786
1	969	106.534010615036	0.243799183712
1	972	106.628601336253	0.098477780507
1	977	107.453903193385	0.094590721217
1	982	107.676593655062	0.094590721217
1	987	107.930359247452	0.094590721217
1	992	108.527409669541	0.094590721217
1	997	109.010517689751	0.094590721217
1	1002	109.841258478864	0.094590721217
1	1007	110.494959619243	0.094590721217
1	1014	110.736458708821	0.094590721217
1	1017	110.831049430038	0.119863918279
1	1024	111.04739473135	0.094590721217
1	1027	111.141985452567	0.137845821302
1	1032	112.123263637977	0.094590721217
1	1037	112.352556929709	0.094590721217
1	1042	113.255959735809	0.094590721217
1	1047	113.593865211774	0.094590721217
1	1052	114.337205544307	0.094590721217
1	1058	115.051647391022	0.094590721217
1	1063	115.264509109119	0.094590721217
1	1068	115.517829004218	0.094590721217
1	1073	116.483471405712	0.094590721217
1	1078	117.982336798928	0.094590721217
1	1083	118.388996228991	0.094590721217
1	1088	118.847755366556	0.094590721217
1	1093	120.179263371609	0.094590721217
1	1098	120.967817815515	0.094590721217
1	1103	121.243298988193	0.094590721217
1	1108	121.925793703732	0.094590721217
1	1113	122.192283357451	0.094590721217
1	1118	122.493043339108	0.094590721217
1	1123	122.672322504271	0.094590721217
1	1128	123.207237559791	0.094590721217
1	1133	124.004911027073	0.094590721217
1	1140	125.204758058835	0.094590721217
1	1143	125.299348780052	0.15939627725
1	1148	125.764922545441	0.094590721217
1	1155	126.180112791093	0.094590721217
1	1158	126.27470351231	0.176555810434
1	1163	126.401922352756	0.094590721217
1	1168	126.853594413786	0.094590721217
1	1173	127.044265482707	0.094590721217
1	1178	127.154680426556	0.094590721217
1	1183	127.523296021752	0.094590721217
1	1188	127.762891186855	0.094590721217
1	1193	128.026982010632	0.094590721217
1	1198	128.371291143131	0.094590721217
1	1203	128.471415203466	0.094590721217
1	1208	129.707310238122	0.094590721217
1	1213	129.811494758359	0.094590721217
1	1218	130.341805545688	0.094590721217
1	1223	131.680349115907	0.094590721217
1	1228	132.41518083281	0.094590721217
1	1233	133.084092505697	0.094590721217
1	1238	133.370960623316	0.094590721217
1	1245	133.878632656717	0.094590721217
1	1248	133.973223377934	0.133589420989
1	1253	134.807916764736	0.094590721217
1	1258	135.114402264335	0.094590721217
1	1265	135.951915755891	0.094590721217
1	1268	136.046506477108	0.138529841397
1	1273	136.501683858545	0.094590721217
1	1280	137.519177906509	0.094590721217
1	1285	137.613768627726	0.119068776565
1	1290	137.708359348943	0.121389331639
1	1293	137.80295007016	0.18293296537
1	1298	137.967937468128	0.094590721217
1	1303	138.394258082733	0.094590721217
1	1308	139.112189539051	0.094590721217
1	1315	139.312956408965	0.094590721217
1	1320	139.407547130182	0.131698374619
1	1323	139.502137851399	0.129611086428
1	1328	139.751616963925	0.094590721217
1	1333	140.795541129176	0.094590721217
1	1338	141.350443814453	0.094590721217
1	1343	141.645031467036	0.094590721217
1	1350	141.838899109585	0.094590721217
1	1353	141.933489830802	0.114118484814
1	1358	143.670780599995	0.094590721217
1	1363	144.202717569642	0.094590721217
1	1368	145.056982811038	0.094590721217
1	1379	145.246846118108	0.094590721217
1	1382	145.341436839325	0.118754505711
1	1385	145.436027560542	0.200024259561
1	1388	145.530618281759	0.285991539549
1	1393	146.81894197741	0.094590721217
1	1398	147.557236280496	0.094590721217
1	1403	147.961712039072	0.094590721217
1	1409	150.653944999439	0.094590721217
1	1414	150.871271911818	0.094590721217
1	1419	151.373869343125	0.094590721217
1	1424	151.51778823746	0.094590721217
1	1429	151.669161724825	0.094590721217
1	1434	152.022996457106	0.094590721217
1	1439	153.355731598669	0.094590721217
1	1444	153.776116588255	0.094590721217
1	1451	154.101619033066	0.094590721217
1	1454	154.196209754283	0.134988911024
1	1459	154.850272773552	0.094590721217
1	1464	155.312829648656	0.094590721217
1	1469	156.5579843852	0.094590721217
1	1474	157.052019175037	0.094590721217
1	1479	157.666871221055	0.094590721217
1	1486	157.790304676273	0.094590721217
1	1489	157.88489539749	0.182891985926
1	1494	158.090511922594	0.094590721217
1	1499	158.223239979101	0.094590721217
1	1504	158.440036872186	0.094590721217
1	1509	159.686643718559	0.094590721217
1	1514	159.829607212846	0.094590721217
1	1519	160.345098729529	0.094590721217
1	1524	162.094006493037	0.094590721217
1	1531	162.782549222617	0.094590721217
1	1534	162.877139943834	0.153010831396
1	1539	163.020144367794	0.094590721217
1	1544	163.485693252913	0.094590721217
1	1551	164.313763079689	0.094590721217
1	1554	164.408353800906	0.115349852117
1	1561	165.105096787018	0.094590721217
1	1564	165.199687508235	0.156176489616
1	1569	165.432363765337	0.094590721217
1	1576	166.737789073452	0.094590721217
1	1579	166.832379794669	0.130762244134
1	1584	166.952890338154	0.094590721217
1	1591	167.634347032016	0.094590721217
1	1594	167.728937753233	0.125994817088
1	1599	167.912095526242	0.094590721217
1	1604	169.139218951698	0.094590721217
1	1609	169.473948513044	0.094590721217
1	1614	169.724236548504	0.094590721217
1	1619	170.903222561592	0.094590721217
1	1624	171.063694014087	0.094590721217
1	1629	171.222127246945	0.094590721217
1	1634	171.363445045088	0.094590721217
1	1641	171.66409536457	0.094590721217
1	1646	171.758686085787	0.136069213579
1	1649	171.853276807004	0.151191912724
1	1654	172.276467626322	0.094590721217
1	1661	172.905984367146	0.094590721217
1	1664	173.000575088363	0.119287904474
1	1669	174.028901581572	0.094590721217
1	1676	174.21836640426	0.094590721217
1	1681	174.312957125477	0.166607508717
1	1684	174.407547846694	0.117341388914
1	1693	174.720134540447	0.094590721217
1	1696	174.814725261664	0.188873301036
1	1699	174.909315982881	0.217796530535
1	1706	175.343275297782	0.094590721217
1	1709	175.437866018999	0.116446624264
1	1714	175.663723684519	0.094590721217
1	1719	175.839832817865	0.094590721217
1	1724	176.425255931602	0.094590721217
1	1729	176.756144007139	0.094590721217
1	1734	176.942622017245	0.094590721217
1	1739	178.06479118944	0.094590721217
1	1744	180.772475537469	0.094590721217
1	1751	181.981965978718	0.094590721217
1	1754	182.076556699935	0.174873489648
1	1760	182.499990570647	0.094590721217
1	1765	183.057890536885	0.094590721217
1	1770	183.474787510068	0.094590721217
1	1775	184.192103121108	0.094590721217
1	1780	184.713768464167	0.094590721217
1	1785	185.787799417514	0.094590721217
1	1790	187.113832528192	0.094590721217
1	1795	187.391568887622	0.094590721217
1	1800	188.562320692285	0.094590721217
1	1807	189.410217341944	0.094590721217
1	1810	189.504808063161	0.187168982224
1	1815	190.529952834802	0.094590721217
1	1820	190.688586677039	0.094590721217
1	1825	191.150546587299	0.094590721217
1	1830	192.402861410667	0.094590721217
1	1835	193.83125505213	0.094590721217
1	1842	194.297673858627	0.094590721217
1	1845	194.392264579844	0.129770116827
1	1850	194.618010465266	0.094590721217
1	1855	196.322338386019	0.094590721217
1	1862	197.171252935754	0.094590721217
1	1865	197.265843656971	0.157188819141
1	1870	197.468418664266	0.094590721217
1	1875	197.615113298059	0.094590721217
1	1880	197.861526816623	0.094590721217
1	1885	198.30184901587	0.094590721217
1	1890	198.413065289765	0.094590721217
1	1895	199.125704194131	0.094590721217
1	1900	199.498717081921	0.094590721217
1	1905	199.770796198553	0.094590721217
1	1910	199.994110025432	0.094590721217
1	1915	200.383456076911	0.094590721217
1	1922	200.501456331851	0.094590721217
1	1925	200.596047053068	0.165583921307
1	1930	200.742645180474	0.094590721217
1	1935	200.982358271039	0.094590721217
1	1940	201.658155776193	0.094590721217
1	1945	202.022784250019	0.094590721217
1	1950	202.434755318551	0.094590721217
1	1955	202.557167038348	0.094590721217
1	1960	203.297306427184	0.094590721217
1	1965	204.007812063356	0.094590721217
1	1972	204.416506308601	0.094590721217
1	1975	204.511097029818	0.10340302791
1	1980	204.65591947154	0.094590721217
1	1985	204.765806204931	0.094590721217
1	1990	206.245967422041	0.094590721217
1	1997	206.864381459623	0.094590721217
1	2000	206.95897218084	0.117308717088
1	2005	207.922458390615	0.094590721217
1	2010	209.285269756369	0.094590721217
1	2015	209.627688124602	0.094590721217
1	2020	209.912540549155	0.094590721217
1	2025	211.473064930227	0.094590721217
1	2030	211.650706272234	0.094590721217
1	2035	211.888188448615	0.094590721217
1	2042	212.842709129698	0.094590721217
1	2045	212.937299850915	0.180799923675
1	2050	213.486269556099	0.094590721217
1	2055	213.978318268488	0.094590721217
1	2060	214.538308945585	0.094590721217
1	2067	214.753151856265	0.094590721217
1	2070	214.847742577482	0.157361465033
1	2075	216.917820083963	0.094590721217
1	2080	218.056639164649	0.094590721217
1	2085	218.233347224055	0.094590721217
1	2094	218.870941348478	0.094590721217
1	2097	218.965532069695	0.142235353524
1	2102	219.060122790912	0.195761601433
1	2105	219.154713512129	0.095745174108
1	2113	219.585998240328	0.094590721217
1	2116	219.680588961545	0.173940684405
1	2121	220.125425603162	0.094590721217
1	2126	220.358324863557	0.094590721217
1	2131	220.79619104628	0.094590721217
1	2136	221.224257005582	0.094590721217
1	2141	221.341486916171	0.094590721217
1	2146	222.354339806811	0.094590721217
1	2151	223.959057253447	0.094590721217
1	2156	224.480839581551	0.094590721217
1	2163	224.634859494458	0.094590721217
1	2166	224.729450215675	0.181738535229
1	2171	224.920168191783	0.094590721217
1	2176	225.228865017659	0.094590721217
1	2181	226.486330604263	0.094590721217
1	2186	226.875852227941	0.094590721217
1	2191	227.321487731036	0.094590721217
1	2200	227.49781438287	0.094590721217
1	2203	227.592405104087	0.157610328839
1	2206	227.686995825304	0.209521115961
1	2213	227.967756174287	0.094590721217
1	2216	228.062346895504	0.102621047916
1	2221	228.264006478712	0.094590721217
1	2226	228.444146865432	0.094590721217
1	2231	228.692838460306	0.094590721217
1	2236	229.468072671644	0.094590721217
1	2241	230.472749957281	0.094590721217
1	2246	230.809947656882	0.094590721217
1	2253	231.429453627485	0.094590721217
1	2256	231.524044348702	0.161064043559
1	2261	231.943916093821	0.094590721217
1	2266	232.225859192689	0.094590721217
1	2271	234.075442532894	0.094590721217
1	2276	234.333524913517	0.094590721217
1	2281	235.173100402675	0.094590721217
1	2286	235.649168624324	0.094590721217
1	2293	236.270337784848	0.094590721217
1	2296	236.364928506065	0.146079284893
1	2301	237.378039869804	0.094590721217
1	2306	237.850403966212	0.094590721217
1	2311	238.931011981463	0.094590721217
1	2316	239.543814376566	0.094590721217
1	2323	240.855706784581	0.094590721217
1	2326	240.950297505798	0.112336329201
1	2331	241.904700658946	0.094590721217
1	2336	242.57324295327	0.094590721217
1	2341	244.21472011333	0.094590721217
1	2346	246.277613824351	0.094590721217
1	2351	246.381663601653	0.094590721217
1	2358	247.179106808178	0.094590721217
1	2363	247.273697529395	0.173718879122
1	2370	247.368288250612	0.160258627954
1	2373	247.462878971829	0.188621002829
1	2376	247.557469693046	0.235438681965
1	2381	247.989167538924	0.094590721217
1	2386	248.171699198525	0.094590721217
1	2391	248.294552818347	0.094590721217
1	2396	250.251881669853	0.094590721217
1	2401	250.592611058128	0.094590721217
1	2406	250.720454243261	0.094590721217
1	2411	252.200095976087	0.094590721217
1	2416	252.584292555942	0.094590721217
1	2421	252.719918765341	0.094590721217
1	2426	253.05095399824	0.094590721217
1	2431	253.401508739449	0.094590721217
1	2436	255.674546442998	0.094590721217
1	2441	256.051502737512	0.094590721217
1	2448	256.446883508934	0.094590721217
1	2451	256.541474230151	0.142768172853
1	2456	258.694304210436	0.094590721217
1	2464	259.04118143684	0.322077590553
1	2467	259.135772158057	0.238380157684
1	2472	260.010555748446	0.094590721217
1	2479	260.4020499873	0.094590721217
1	2482	260.496640708517	0.120964765123
1	2487	260.741084476932	0.094590721217
1	2492	261.024963286516	0.094590721217
1	2497	261.458943889676	0.094590721217
1	2502	261.804114485826	0.094590721217
1	2507	262.328347242395	0.094590721217
1	2512	262.943420133198	0.094590721217
1	2517	263.050650880601	0.094590721217
1	2522	263.421694066768	0.094590721217
1	2527	264.26722814834	0.094590721217
1	2534	264.667932031003	0.094590721217
1	2537	264.76252275222	0.139015451858
1	2542	264.988179121933	0.094590721217
1	2547	265.827922978066	0.094590721217
1	2554	267.341294023843	0.094590721217
1	2559	267.43588474506	0.112961621975
1	2562	267.530475466277	0.119281431852
1	2567	268.865271432492	0.094590721217
1	2572	270.319180196586	0.094590721217
1	2577	270.47623103382	0.094590721217
1	2582	270.599658769966	0.094590721217
1	2587	271.150694224993	0.094590721217
1	2592	272.791657534914	0.094590721217
1	2599	274.866840023531	0.094590721217
1	2602	274.961430744748	0.166415576917
1	2609	275.234733780388	0.094590721217
1	2612	275.329324501605	0.143562168447
1	2617	275.716561415128	0.094590721217
1	2624	276.170477325053	0.094590721217
1	2627	276.26506804627	0.177553627543
1	2632	276.401695715516	0.094590721217
1	2637	277.069967994603	0.094590721217
1	2642	277.46937287513	0.094590721217
1	2647	277.928144578131	0.094590721217
1	2656	278.252434885782	0.094590721217
1	2659	278.347025606999	0.170428617863
1	2662	278.441616328216	0.237879597812
1	2667	278.927371426617	0.094590721217
1	2672	279.550070205464	0.094590721217
1	2677	280.356072319552	0.094590721217
1	2682	280.600937845669	0.094590721217
1	2687	282.099833573006	0.094590721217
1	2692	283.583081993286	0.094590721217
1	2697	284.300871606553	0.094590721217
1	2702	284.599545713077	0.094590721217
1	2709	285.243470189071	0.094590721217
1	2712	285.338060910288	0.126891779098
1	2717	285.882994953305	0.094590721217
1	2722	286.064276806185	0.094590721217
1	2729	286.682616822767	0.094590721217
1	2734	286.777207543984	0.16862930998
1	2737	286.871798265201	0.164219559665
1	2744	288.609355987401	0.094590721217
1	2749	288.703946708618	0.101021757945
1	2754	288.798537429835	0.107942265493
1	2761	288.893128151052	0.176669453237
1	2764	288.987718872269	0.167972081109
1	2767	289.082309593486	0.227886619047
1	2772	289.233065015434	0.094590721217
1	2777	289.571694578088	0.094590721217
1	2782	289.868650520931	0.094590721217
1	2789	289.996549712624	0.094590721217
1	2792	290.091140433841	0.165882599341
1	2797	290.352664496988	0.094590721217
1	2802	290.747478982007	0.094590721217
1	2807	291.061697234043	0.094590721217
1	2813	292.10870843564	0.094590721217
1	2818	292.748291967914	0.094590721217
1	2823	292.982434970689	0.094590721217
1	2828	293.184746792782	0.094590721217
1	2833	293.359157573872	0.094590721217
1	2838	294.030730021555	0.094590721217
1	2843	294.393476623058	0.094590721217
1	2848	294.975728717867	0.094590721217
1	2855	295.109863442696	0.094590721217
1	2858	295.204454163913	0.107520204593
1	2863	295.839618704496	0.094590721217
1	2868	296.16356704257	0.094590721217
1	2873	297.816937957628	0.094590721217
1	2880	298.286844818263	0.094590721217
1	2883	298.38143553948	0.157872804581
1	2888	299.201549680422	0.094590721217
1	2893	301.114428777572	0.094590721217
1	2898	302.483777472923	0.094590721217
1	2907	303.554121299504	0.094590721217
1	2910	303.648712020721	0.17570420761
1	2913	303.743302741938	0.267572924266
1	2918	305.15169514159	0.094590721217
1	2923	305.944610119057	0.094590721217
1	2928	306.168311580796	0.094590721217
1	2933	307.060328723159	0.094590721217
1	2938	307.481636130196	0.094590721217
1	2943	307.63591354628	0.094590721217
1	2948	308.284364458972	0.094590721217
1	2953	309.197929388408	0.094590721217
1	2958	310.383763254877	0.094590721217
1	2963	310.61317663918	0.094590721217
1	2968	310.748107505006	0.094590721217
1	2973	311.109396208525	0.094590721217
1	2978	311.434537723248	0.094590721217
1	2983	311.700076647269	0.094590721217
1	2988	312.159667695244	0.094590721217
1	2993	313.143774533394	0.094590721217
1	2998	313.562981490121	0.094590721217
1	3003	314.100281666595	0.094590721217
1	3008	314.213817932688	0.094590721217
1	3013	315.44993069099	0.094590721217
1	3018	315.616072150562	0.094590721217
1	3023	316.198810284233	0.094590721217
1	3028	316.487876936237	0.094590721217
1	3033	316.77250908382	0.094590721217
1	3038	316.87029565431	0.094590721217
1	3043	317.329417326094	0.094590721217
1	3048	317.675402547379	0.094590721217
1	3053	317.779251407666	0.094590721217
1	3058	318.044441786102	0.094590721217
1	3063	318.245140319298	0.094590721217
1	3070	318.54824672866	0.094590721217
1	3073	318.642837449877	0.139353871667
1	3078	319.215607762313	0.094590721217
1	3083	321.301958501128	0.094590721217
1	3088	321.480325452188	0.094590721217
1	3093	321.754784444535	0.094590721217
1	3098	322.617532720258	0.094590721217
1	3103	322.756890138715	0.094590721217
1	3110	323.332402130145	0.094590721217
1	3113	323.426992851362	0.15484463963
1	3118	323.817186085102	0.094590721217
1	3123	323.950306078926	0.094590721217
1	3128	324.212716754573	0.094590721217
1	3133	325.272986395388	0.094590721217
1	3138	326.194610403939	0.094590721217
1	3143	326.567712548052	0.094590721217
1	3148	327.059727711409	0.094590721217
1	3153	328.602739416238	0.094590721217
1	3158	329.152440104764	0.094590721217
1	3164	330.21955090979	0.094590721217
1	3169	330.598027774329	0.094590721217
1	3174	330.926675417286	0.094590721217
1	3183	332.036142595397	0.094590721217
1	3190	332.130733316614	0.167222743012
1	3193	332.225324037831	0.249283346326
1	3196	332.319914759048	0.237351726476
1	3199	332.414505480265	0.285608728525
1	3206	332.632048456746	0.094590721217
1	3209	332.726639177963	0.122636442278
1	3214	333.754518328138	0.094590721217
1	3219	333.922279306865	0.094590721217
1	3224	338.228273117092	0.094590721217
1	3231	338.778115797631	0.094590721217
1	3234	338.872706518848	0.11605763126
1	3239	339.420860952576	0.094590721217
1	3244	339.595399822286	0.094590721217
1	3249	340.103101190639	0.094590721217
1	3254	340.223315556084	0.094590721217
1	3259	341.340889447893	0.094590721217
1	3264	341.572202408994	0.094590721217
1	3269	342.029003860361	0.094590721217
1	3274	342.572060469976	0.094590721217
1	3281	342.74798051597	0.094590721217
1	3284	342.842571237187	0.177539642439
1	3289	343.275797650214	0.094590721217
1	3296	343.728583272703	0.094590721217
1	3299	343.82317399392	0.156609964041
1	3304	343.942592056291	0.094590721217
1	3309	344.450766348614	0.094590721217
1	3314	345.030903162158	0.094590721217
1	3319	345.646258843123	0.094590721217
1	3324	345.818965601697	0.094590721217
1	3329	346.270142225049	0.094590721217
1	3334	347.452911720988	0.094590721217
1	3339	348.491812899706	0.094590721217
1	3344	348.838911101346	0.094590721217
1	3349	348.95595794003	0.094590721217
1	3354	349.525401547972	0.094590721217
1	3359	349.829155568323	0.094590721217
1	3364	351.378338028276	0.094590721217
1	3369	351.938289268149	0.094590721217
1	3374	352.067801854795	0.094590721217
1	3381	352.421540955147	0.094590721217
1	3384	352.516131676364	0.181917434285
1	3391	353.501555926039	0.094590721217
1	3394	353.596146647256	0.180164621427
1	3399	353.773236163395	0.094590721217
1	3406	355.01663870095	0.094590721217
1	3409	355.111229422167	0.171876562329
1	3414	355.291995776789	0.094590721217
1	3419	355.425818662538	0.094590721217
1	3424	356.245308016221	0.094590721217
1	3433	358.100017588995	0.094590721217
1	3436	358.194608310212	0.151345971649
1	3439	358.289199031429	0.202046878358
1	3446	358.541959820347	0.094590721217
1	3449	358.636550541564	0.103551124375
1	3454	358.849784137497	0.094590721217
1	3459	358.954961611606	0.094590721217
1	3464	359.343310634083	0.094590721217
1	3469	359.63780472223	0.094590721217
1	3474	360.028075135358	0.094590721217
1	3479	360.183308694868	0.094590721217
1	3484	360.411629445892	0.094590721217
1	3489	363.782131117869	0.094590721217
1	3494	363.881285609123	0.094590721217
1	3499	364.97996743517	0.094590721217
1	3506	366.249535759394	0.094590721217
1	3509	366.344126480611	0.177177598146
1	3517	366.691003707015	0.326010962329
1	3520	366.785594428232	0.315783432403
1	3525	367.032249044568	0.094590721217
1	3532	368.495546219149	0.094590721217
1	3537	368.590136940366	0.105253350645
1	3540	368.684727661583	0.116667276128
1	3545	368.864097914971	0.094590721217
1	3550	369.399137714185	0.094590721217
1	3555	370.844996862054	0.094590721217
1	3560	371.439574605892	0.094590721217
1	3565	371.564081521346	0.094590721217
1	3570	371.674104002128	0.094590721217
1	3577	372.744988820872	0.094590721217
1	3580	372.839579542089	0.172528870262
1	3585	373.955112583994	0.094590721217
1	3592	374.522890275627	0.094590721217
1	3595	374.617480996844	0.136606510052
1	3600	375.28401642022	0.094590721217
1	3605	376.125329549174	0.094590721217
1	3610	377.000067368847	0.094590721217
1	3615	377.261269641478	0.094590721217
1	3620	377.358352645685	0.094590721217
1	3625	377.721496480885	0.094590721217
1	3630	378.211963827995	0.094590721217
1	3637	378.3155652616	0.094590721217
1	3640	378.410155982817	0.101362016385
1	3647	379.402603505605	0.094590721217
1	3656	379.497194226822	0.172433171808
1	3659	379.591784948039	0.186034364082
1	3662	379.686375669256	0.243314283119
1	3665	379.780966390473	0.301277923621
1	3672	380.830993371969	0.094590721217
1	3675	380.925584093186	0.128844198582
1	3680	381.257778894572	0.094590721217
1	3691	382.371694687984	0.094590721217
1	3694	382.466285409201	0.181315273733
1	3697	382.560876130418	0.254946756728
1	3702	382.655466851635	0.349302616582
1	3705	382.750057572852	0.188551269684
1	3710	384.91341673769	0.094590721217
1	3715	385.141937916574	0.094590721217
1	3720	385.293945563217	0.094590721217
1	3725	385.596833638543	0.094590721217
1	3730	386.631674037716	0.094590721217
1	3735	387.185551494529	0.094590721217
1	3740	387.402403554064	0.094590721217
1	3745	387.833234154923	0.094590721217
1	3750	388.2128565674	0.094590721217
1	3757	388.930286435326	0.094590721217
1	3760	389.024877156543	0.10614864907
1	3767	389.256520628622	0.094590721217
1	3770	389.351111349839	0.126880738176
1	3777	390.464728210629	0.094590721217
1	3780	390.559318931846	0.122914712979
1	3785	390.776584602699	0.094590721217
1	3790	391.390883063001	0.094590721217
1	3795	391.965848748145	0.094590721217
1	3800	392.795161654454	0.094590721217
1	3805	392.982246716039	0.094590721217
1	3810	393.959462674271	0.094590721217
1	3815	394.502279501416	0.094590721217
1	3820	394.787095020481	0.094590721217
1	3825	394.974904396739	0.094590721217
1	3830	396.027340687917	0.094590721217
1	3835	396.203377576384	0.094590721217
1	3840	396.634648586209	0.094590721217
1	3845	397.012830510621	0.094590721217
1	3850	397.948066904706	0.094590721217
1	3855	398.943320281444	0.094590721217
1	3860	400.041537561825	0.094590721217
1	3866	401.188019989308	0.094590721217
1	3873	401.428947234824	0.094590721217
1	3876	401.523537956041	0.158585855295
1	3881	402.330143406818	0.094590721217
1	3886	403.783871100768	0.094590721217
1	3893	404.499447222129	0.094590721217
1	3896	404.594037943346	0.16560176879
1	3901	406.178128426439	0.094590721217
1	3906	406.93000058209	0.094590721217
1	3911	407.99842944203	0.094590721217
1	3918	408.626972427914	0.094590721217
1	3921	408.721563149131	0.102493218565
1	3926	408.844555864112	0.094590721217
1	3933	409.564609487948	0.094590721217
1	3936	409.659200209165	0.168331583429
1	3941	409.865597296263	0.094590721217
1	3946	410.216519438274	0.094590721217
1	3951	410.33064926874	0.094590721217
1	3956	410.773676602258	0.094590721217
1	3961	410.932167735923	0.094590721217
1	3966	412.236165057222	0.094590721217
1	3975	412.412403794349	0.094590721217
1	3978	412.506994515566	0.18743431249
1	3981	412.601585236783	0.242878428869
1	3986	412.711776195403	0.094590721217
1	3993	412.875246668637	0.094590721217
1	3996	412.969837389854	0.167761956648
1	4001	413.607991832898	0.094590721217
1	4006	413.794819819526	0.094590721217
1	4013	414.057611608185	0.094590721217
1	4016	414.152202329402	0.105447036607
1	4021	414.334042049333	0.094590721217
1	4028	414.503663795884	0.094590721217
1	4035	414.598254517101	0.099622737884
1	4038	414.692845238318	0.180844813103
1	4041	414.787435959535	0.22261779394
1	4046	414.96368987193	0.094590721217
1	4053	415.089583470464	0.094590721217
1	4056	415.184174191681	0.150499125383
1	4061	416.72722387353	0.094590721217
1	4066	417.285610926121	0.094590721217
1	4071	417.645914251077	0.094590721217
1	4078	418.307094291227	0.094590721217
1	4081	418.401685012444	0.119340331795
1	4086	418.722382126513	0.094590721217
1	4091	418.826645916969	0.094590721217
1	4096	420.035331544375	0.094590721217
1	4101	420.876968233651	0.094590721217
1	4106	421.253397403051	0.094590721217
1	4113	422.220702904675	0.094590721217
1	4116	422.315293625892	0.112078838861
1	4121	424.828913759262	0.094590721217
1	4126	425.949266593085	0.094590721217
1	4131	426.450057920851	0.094590721217
1	4136	427.015061511296	0.094590721217
1	4141	428.597580530418	0.094590721217
1	4148	429.228582970118	0.094590721217
1	4151	429.323173691335	0.151779840953
1	4156	429.651665327904	0.094590721217
1	4161	429.754394435987	0.094590721217
1	4166	430.466177440841	0.094590721217
1	4171	430.993678649152	0.094590721217
1	4176	432.68729522635	0.094590721217
1	4181	433.553604489929	0.094590721217
1	4188	434.040411977379	0.094590721217
1	4191	434.135002698596	0.120310443905
1	4196	434.578975548995	0.094590721217
1	4201	435.38508687598	0.094590721217
1	4206	435.581913504012	0.094590721217
1	4211	436.183773218817	0.094590721217
1	4217	436.819579690638	0.094590721217
1	4222	437.556891312027	0.094590721217
1	4227	437.957812627755	0.094590721217
1	4232	440.315939694547	0.094590721217
1	4237	440.488893764611	0.094590721217
1	4242	441.303254712927	0.094590721217
1	4247	441.906428348126	0.094590721217
1	4254	442.103918938381	0.094590721217
1	4257	442.198509659598	0.149030421361
1	4262	442.83848112125	0.094590721217
1	4269	442.978095487296	0.094590721217
1	4272	443.072686208513	0.168365944365
1	4277	443.217808175645	0.094590721217
1	4282	443.77470071499	0.094590721217
1	4289	444.182423910445	0.094590721217
1	4292	444.277014631662	0.099884722713
1	4297	444.573206835023	0.094590721217
1	4302	445.258746311571	0.094590721217
1	4309	445.582711229722	0.094590721217
1	4312	445.677301950939	0.124506561583
1	4319	447.214691485097	0.094590721217
1	4322	447.309282206314	0.112661083284
1	4329	447.409360433709	0.094590721217
1	4332	447.503951154926	0.179118492112
1	4339	447.764938991835	0.094590721217
1	4342	447.859529713052	0.143234014425
1	4347	448.112393163543	0.094590721217
1	4352	448.329167622357	0.094590721217
1	4357	448.465430284494	0.094590721217
1	4362	448.653936975366	0.094590721217
1	4369	448.84160108157	0.094590721217
1	4374	448.936191802787	0.116648291921
1	4377	449.030782524004	0.149940635757
1	4382	449.639766487689	0.094590721217
1	4387	449.796663070735	0.094590721217
1	4392	450.662202123216	0.094590721217
1	4397	452.53685226491	0.094590721217
1	4404	452.634135864253	0.094590721217
1	4409	452.72872658547	0.18571476043
1	4412	452.823317306687	0.096183262024
1	4417	452.953245919842	0.094590721217
1	4424	453.183081163859	0.094590721217
1	4427	453.277671885076	0.15902647251
1	4432	454.239812698256	0.094590721217
1	4437	454.346444316602	0.094590721217
1	4442	454.648861855369	0.094590721217
1	4447	454.941947677722	0.094590721217
1	4452	455.304097364936	0.094590721217
1	4457	455.879132159548	0.094590721217
1	4462	456.970906803543	0.094590721217
1	4471	457.208494835556	0.094590721217
1	4474	457.303085556773	0.118982693093
1	4477	457.39767627799	0.196078211971
1	4482	457.612001416054	0.094590721217
1	4487	458.380849505935	0.094590721217
1	4492	459.904334232297	0.094590721217
1	4497	460.517396649086	0.094590721217
1	4502	460.645422890514	0.094590721217
1	4507	461.349222447568	0.094590721217
1	4512	461.670350697816	0.094590721217
1	4517	463.041913437272	0.094590721217
1	4522	464.273244366457	0.094590721217
1	4527	464.653347057968	0.094590721217
1	4532	466.440125422198	0.094590721217
1	4537	466.591840509814	0.094590721217
1	4542	467.046955665814	0.094590721217
1	4547	467.385118206415	0.094590721217
1	4552	468.583000009101	0.094590721217
1	4557	469.08074234775	0.094590721217
1	4564	469.279478951924	0.094590721217
1	4568	469.626356178328	0.435661251715
1	4573	470.155376212268	0.094590721217
1	4578	471.146851355327	0.094590721217
1	4583	472.270262436526	0.094590721217
1	4588	472.823858207522	0.094590721217
1	4593	473.277838215245	0.094590721217
1	4598	473.39492589016	0.094590721217
1	4603	473.613801225714	0.094590721217
1	4608	474.195486117337	0.094590721217
1	4613	474.579762952191	0.094590721217
1	4618	474.689753900185	0.094590721217
1	4623	475.022985483506	0.094590721217
1	4628	475.391240665444	0.094590721217
1	4633	475.580133153684	0.094590721217
1	4638	475.824554013817	0.094590721217
1	4643	476.083821811145	0.094590721217
1	4648	476.35454004195	0.094590721217
1	4653	477.29251246803	0.094590721217
1	4658	477.734122621413	0.094590721217
1	4663	478.094793503153	0.094590721217
1	4668	478.388511899686	0.094590721217
1	4673	479.135147836426	0.094590721217
1	4678	479.43968222561	0.094590721217
1	4685	480.10047087114	0.094590721217
1	4688	480.195061592357	0.126937216245
1	4693	480.367850906579	0.094590721217
1	4698	480.744506988382	0.094590721217
1	4703	481.122897006085	0.094590721217
1	4712	481.572501515653	0.094590721217
1	4715	481.66709223687	0.176676187641
1	4722	481.761682958087	0.262960491879
1	4727	481.856273679304	0.15780228136
1	4730	481.950864400521	0.191537846131
1	4733	482.045455121738	0.243402983464
1	4738	482.991424388307	0.094590721217
1	4743	484.389585313586	0.094590721217
1	4748	484.886489832185	0.094590721217
1	4755	485.157788747816	0.094590721217
1	4758	485.252379469033	0.112245867091
1	4763	486.199699768815	0.094590721217
1	4768	486.464636353531	0.094590721217
1	4773	487.425717935391	0.094590721217
1	4778	487.615902992185	0.094590721217
1	4785	488.848886592178	0.094590721217
1	4788	488.943477313395	0.111303435507
1	4797	489.9712697341	0.094590721217
1	4800	490.065860455317	0.141266772487
1	4803	490.160451176534	0.22546481826
1	4808	490.702261130369	0.094590721217
1	4813	491.062722294715	0.094590721217
1	4818	491.334849182159	0.094590721217
1	4823	491.523403144605	0.094590721217
1	4830	491.808536176987	0.094590721217
1	4833	491.903126898204	0.168241139063
1	4838	492.230579848856	0.094590721217
1	4843	492.366638211134	0.094590721217
1	4852	493.337833117721	0.094590721217
1	4855	493.432423838938	0.165656803064
1	4858	493.527014560155	0.200608848593
1	4863	494.167899751134	0.094590721217
1	4868	494.345570394828	0.094590721217
1	4873	494.459282521185	0.094590721217
1	4878	495.787698131968	0.094590721217
1	4883	495.953196151345	0.094590721217
1	4888	496.418161232003	0.094590721217
1	4893	497.831457290835	0.094590721217
1	4898	498.801165111802	0.094590721217
1	4903	499.697389524043	0.094590721217
1	4908	499.845530502202	0.094590721217
1	4913	501.550169944709	0.094590721217
1	4919	501.9745092022	0.094590721217
1	4924	502.18918903546	0.094590721217
1	4929	502.887359438408	0.094590721217
1	4934	503.489580015072	0.094590721217
1	4939	504.311933619036	0.094590721217
1	4944	505.398092266465	0.094590721217
1	4949	506.42127282019	0.094590721217
1	4954	507.205572792002	0.094590721217
1	4959	507.758908380743	0.094590721217
1	4964	509.243586994392	0.094590721217
1	4969	509.591902707615	0.094590721217
1	4976	511.052328746421	0.094590721217
1	4979	511.146919467638	0.17250994243
1	4984	511.553679582955	0.094590721217
1	4989	511.905726605218	0.094590721217
1	4994	512.600591273745	0.094590721217
1	4999	513.016667878841	0.094590721217
1	5006	513.891602156266	0.094590721217
1	5011	513.986192877483	0.188196815799
1	5014	514.0807835987	0.107207742687
1	5019	514.492065779366	0.094590721217
1	5024	514.63500360822	0.094590721217
1	5029	516.487611686761	0.094590721217
1	5034	517.095951088863	0.094590721217
1	5039	517.259746617191	0.094590721217
1	5044	517.596263265957	0.094590721217
1	5049	518.270581469514	0.094590721217
1	5054	519.202523661797	0.094590721217
1	5059	519.509891511621	0.094590721217
1	5064	519.639524248139	0.094590721217
1	5069	520.330420290713	0.094590721217
1	5074	520.661171575438	0.094590721217
1	5081	520.827780756215	0.094590721217
1	5086	520.922371477432	0.160424769145
1	5091	521.016962198649	0.18829338084
1	5094	521.111552919866	0.129704504797
1	5101	521.210935903554	0.094590721217
1	5104	521.305526624771	0.13144780186
1	5109	523.37992688125	0.094590721217
1	5116	523.543748463168	0.094590721217
1	5119	523.638339184385	0.114680423258
1	5128	523.757584701555	0.094590721217
1	5131	523.852175422772	0.131373998785
1	5136	523.946766143989	0.203627508849
1	5139	524.041356865206	0.106156327792
1	5144	524.326132315408	0.094590721217
1	5149	524.505512808308	0.094590721217
1	5154	525.065267557755	0.094590721217
1	5159	525.199090421748	0.094590721217
1	5164	525.478141729838	0.094590721217
1	5169	525.714766863389	0.094590721217
1	5180	527.155412739619	0.094590721217
1	5183	527.250003460836	0.130181795852
1	5186	527.344594182053	0.204515178104
1	5189	527.43918490327	0.284448436599
1	5194	527.748405548703	0.094590721217
1	5199	528.90025488151	0.094590721217
1	5204	529.061597780784	0.094590721217
1	5209	530.296948434566	0.094590721217
1	5214	530.756550596326	0.094590721217
1	5219	531.343864089344	0.094590721217
1	5224	531.514908805363	0.094590721217
1	5229	531.635655471863	0.094590721217
1	5234	531.932693155176	0.094590721217
1	5239	532.279833802985	0.094590721217
1	5244	532.454907087682	0.094590721217
1	5249	532.655946011734	0.094590721217
1	5254	533.595799096305	0.094590721217
1	5259	533.964449099235	0.094590721217
1	5264	534.375914053422	0.094590721217
1	5272	534.722791279826	0.297005506946
1	5275	534.817382001043	0.224400214096
1	5282	535.610350257032	0.094590721217
1	5285	535.704940978249	0.13183108434
1	5290	536.0881042562	0.094590721217
1	5295	536.401614098886	0.094590721217
1	5300	536.574024217343	0.094590721217
1	5305	536.701476875037	0.094590721217
1	5310	536.850153511225	0.094590721217
1	5315	537.156567993232	0.094590721217
1	5320	538.178239895534	0.094590721217
1	5325	538.576610002831	0.094590721217
1	5332	539.142299436795	0.094590721217
1	5337	539.236890158012	0.161752393485
1	5340	539.331480879229	0.158259252659
1	5345	540.394016162315	0.094590721217
1	5350	541.152145632823	0.094590721217
1	5355	541.334947968238	0.094590721217
1	5360	542.27540813107	0.094590721217
1	5365	542.929537498865	0.094590721217
1	5372	543.317643929099	0.094590721217
1	5375	543.412234650316	0.168900151256
1	5380	545.587360248902	0.094590721217
1	5385	546.234137408104	0.094590721217
1	5390	546.513630731596	0.094590721217
1	5395	547.986892021148	0.094590721217
1	5400	548.619630932981	0.094590721217
1	5405	550.189431867589	0.094590721217
1	5412	550.414081422923	0.094590721217
1	5415	550.50867214414	0.171139730497
1	5420	550.620453020014	0.094590721217
1	5429	551.49308662971	0.094590721217
1	5434	551.587677350927	0.138109527726
1	5437	551.682268072144	0.21039492902
1	5444	551.776858793361	0.263735045742
1	5451	551.871449514578	0.174666047022
1	5454	551.966040235795	0.196985873031
1	5457	552.060630957012	0.26166675437
1	5460	552.155221678229	0.339662964637
1	5467	552.471921773828	0.094590721217
1	5470	552.566512495045	0.114704781629
1	5475	553.322754529511	0.094590721217
1	5480	554.089668371799	0.094590721217
1	5485	554.482564040062	0.094590721217
1	5492	556.063860144947	0.094590721217
1	5495	556.158450866164	0.141708455957
1	5500	558.492767492669	0.094590721217
1	5505	558.714445921496	0.094590721217
1	5512	558.996983870289	0.094590721217
1	5515	559.091574591506	0.149341716563
1	5520	559.316669658843	0.094590721217
1	5525	559.445299617954	0.094590721217
1	5530	560.337644008089	0.094590721217
1	5535	560.600934630765	0.094590721217
1	5540	562.544883941785	0.094590721217
1	5545	562.833282861035	0.094590721217
1	5550	563.064566862259	0.094590721217
1	5555	563.192004609506	0.094590721217
1	5560	564.015330383044	0.094590721217
1	5569	564.825657004464	0.094590721217
1	5572	564.920247725681	0.186939070331
1	5575	565.014838446898	0.278510531085
1	5582	565.272050033717	0.094590721217
1	5587	565.366640754934	0.123714653864
1	5590	565.461231476151	0.104014756542
1	5595	566.310979893918	0.094590721217
1	5600	566.629833141177	0.094590721217
1	5605	567.128178883828	0.094590721217
1	5610	568.820971075627	0.094590721217
1	5617	569.05350608517	0.094590721217
1	5625	569.400383311574	0.389952731139
1	5628	569.494974032791	0.336602141894
1	5631	569.589564754008	0.295414674778
1	5636	570.681600573288	0.094590721217
1	5643	571.528078545646	0.094590721217
1	5646	571.622669266863	0.173469127361
1	5651	572.045777044127	0.094590721217
1	5656	573.917805725563	0.094590721217
1	5665	574.38075477725	0.094590721217
1	5668	574.475345498467	0.186625892709
1	5671	574.569936219684	0.213613920902
1	5676	574.94652945689	0.094590721217
1	5681	575.670895457075	0.094590721217
1	5686	576.257158501304	0.094590721217
1	5691	577.041421607542	0.094590721217
1	5696	577.165705975131	0.094590721217
1	5701	578.645347431826	0.094590721217
1	5706	579.979254190705	0.094590721217
1	5711	580.950283941109	0.094590721217
1	5718	581.253090451829	0.094590721217
1	5721	581.347681173046	0.176551130827
1	5728	581.514462761042	0.094590721217
1	5733	581.609053482259	0.124063673799
1	5736	581.703644203476	0.15226005895
1	5741	582.884578202179	0.094590721217
1	5746	583.331337347675	0.094590721217
1	5751	583.640444936138	0.094590721217
1	5756	583.78601603315	0.094590721217
1	5761	585.177396943772	0.094590721217
1	5766	585.375092355451	0.094590721217
1	5771	585.593905168408	0.094590721217
1	5776	585.863051779589	0.094590721217
1	5781	586.397755558537	0.094590721217
1	5786	586.577980980781	0.094590721217
1	5791	586.717321673527	0.094590721217
1	5796	586.885547668161	0.094590721217
1	5801	587.915459209896	0.094590721217
1	5806	588.146969021615	0.094590721217
1	5813	589.008220423119	0.094590721217
1	5816	589.102811144336	0.171760399046
1	5821	589.277281848925	0.094590721217
1	5826	589.426622167844	0.094590721217
1	5833	590.564201353477	0.094590721217
1	5836	590.658792074694	0.173643216323
1	5843	590.929668355988	0.094590721217
1	5846	591.024259077205	0.152341382575
1	5851	591.137772506559	0.094590721217
1	5856	591.811166894728	0.094590721217
1	5861	593.377177598959	0.094590721217
1	5866	594.814565598218	0.094590721217
1	5871	595.396532448137	0.094590721217
1	5878	596.105124281831	0.094590721217
1	5881	596.199715003048	0.164114200081
1	5886	598.64981008289	0.094590721217
1	5891	598.788329920791	0.094590721217
1	5896	599.347123398546	0.094590721217
1	5901	599.635962309473	0.094590721217
1	5906	599.800938686453	0.094590721217
1	5911	600.27007058059	0.094590721217
1	5916	601.095031787512	0.094590721217
1	5921	601.862758848243	0.094590721217
1	5926	602.049611269853	0.094590721217
1	5931	602.346517807631	0.094590721217
1	5936	602.45930023916	0.094590721217
1	5941	602.852527245832	0.094590721217
1	5946	604.184363319234	0.094590721217
1	5951	604.528058330998	0.094590721217
1	5956	604.756490245272	0.094590721217
1	5963	604.881613501741	0.094590721217
1	5966	604.976204222958	0.164001298802
1	5972	605.517940944402	0.094590721217
1	5977	605.663404805751	0.094590721217
1	5982	607.070871993245	0.094590721217
1	5989	607.279866266073	0.094590721217
1	5992	607.37445698729	0.156905962579
1	5999	607.639009738564	0.094590721217
1	6002	607.733600459781	0.182398181452
1	6007	608.873679312103	0.094590721217
1	6012	610.007790452714	0.094590721217
1	6017	610.785879854571	0.094590721217
1	6026	611.737216601385	0.094590721217
1	6029	611.831807322602	0.160608832179
1	6032	611.926398043819	0.19922893473
1	6037	612.208773339407	0.094590721217
1	6044	612.391307539799	0.094590721217
1	6049	612.485898261016	0.112974011641
1	6052	612.580488982233	0.131783762063
1	6057	613.180162775	0.094590721217
1	6062	613.338273425683	0.094590721217
1	6067	614.040583047973	0.094590721217
1	6072	614.172542796854	0.094590721217
1	6079	614.869106102127	0.094590721217
1	6082	614.963696823344	0.147100283826
1	6087	615.152073273267	0.094590721217
1	6094	616.566516236621	0.094590721217
1	6097	616.661106957838	0.170335010087
1	6102	617.023170518714	0.094590721217
1	6107	617.796258196904	0.094590721217
1	6112	618.018397607012	0.094590721217
1	6117	618.237987133597	0.094590721217
1	6124	618.537038362686	0.094590721217
1	6127	618.631629083903	0.103300958716
1	6132	618.846055588822	0.094590721217
1	6137	619.003467381535	0.094590721217
1	6142	620.464356779469	0.094590721217
1	6147	620.66469559531	0.094590721217
1	6152	621.174605088559	0.094590721217
1	6157	621.748921941273	0.094590721217
1	6162	621.863407633867	0.094590721217
1	6167	624.847936011444	0.094590721217
1	6172	625.374972323435	0.094590721217
1	6177	625.962987193637	0.094590721217
1	6182	626.243119122142	0.094590721217
1	6187	626.62836900858	0.094590721217
1	6192	626.964332766769	0.094590721217
1	6197	627.076404494703	0.094590721217
1	6202	627.505689516368	0.094590721217
1	6207	628.20832681176	0.094590721217
1	6212	628.589219052175	0.094590721217
1	6217	628.757190253353	0.094590721217
1	6222	629.644231351884	0.094590721217
1	6227	630.138706351625	0.094590721217
1	6232	630.265769894692	0.094590721217
1	6237	630.395065446259	0.094590721217
1	6242	630.753526277128	0.094590721217
1	6249	631.09806433292	0.094590721217
1	6252	631.192655054137	0.177254356416
1	6261	632.730100378394	0.094590721217
1	6264	632.824691099611	0.154219217244
1	6267	632.919281820828	0.230833633581
1	6272	633.254268473478	0.094590721217
1	6279	633.442566079444	0.094590721217
1	6282	633.537156800661	0.114996842911
1	6289	633.908316454823	0.094590721217
1	6292	634.00290717604	0.137257966685
1	6299	634.971949969628	0.094590721217
1	6302	635.066540690845	0.111287582698
1	6307	635.238901099328	0.094590721217
1	6312	635.457421166413	0.094590721217
1	6317	636.155298325178	0.094590721217
1	6325	636.610769212148	0.094590721217
1	6328	636.705359933365	0.109486005767
1	6335	636.894350928782	0.094590721217
1	6338	636.988941649999	0.168998689924
1	6343	637.337331621291	0.094590721217
1	6348	637.443041973629	0.094590721217
1	6353	638.302371657732	0.094590721217
1	6360	639.034527768584	0.094590721217
1	6363	639.129118489801	0.174263752312
1	6370	640.075007457427	0.094590721217
1	6373	640.169598178644	0.116284077092
1	6378	640.319585493458	0.094590721217
1	6383	641.016259231596	0.094590721217
1	6388	641.780189655268	0.094590721217
1	6393	643.187316231792	0.094590721217
1	6398	643.9538891769	0.094590721217
1	6403	644.792700498424	0.094590721217
1	6408	645.500465131206	0.094590721217
1	6413	645.94441342711	0.094590721217
1	6418	646.385234779445	0.094590721217
1	6423	646.914334130214	0.094590721217
1	6428	647.240058772076	0.094590721217
1	6433	647.4862943908	0.094590721217
1	6438	647.932626262593	0.094590721217
1	6443	648.322885360781	0.094590721217
1	6448	648.534055095581	0.094590721217
1	6455	648.691227761239	0.094590721217
1	6458	648.785818482456	0.102502217047
1	6463	648.900817698452	0.094590721217
1	6468	649.771430704614	0.094590721217
1	6473	650.324965836454	0.094590721217
1	6478	650.820106451863	0.094590721217
1	6483	651.630069450967	0.094590721217
1	6488	652.018110601651	0.094590721217
1	6495	653.92088183365	0.094590721217
1	6498	654.015472554867	0.170941528421
1	6503	654.194082069523	0.094590721217
1	6508	654.457013249658	0.094590721217
1	6513	654.649508671264	0.094590721217
1	6518	655.722621117961	0.094590721217
1	6525	656.115700794331	0.094590721217
1	6528	656.210291515548	0.157465656709
1	6533	656.703280284254	0.094590721217
1	6538	657.226808710773	0.094590721217
1	6545	657.63523058015	0.094590721217
1	6548	657.729821301367	0.099260703787
1	6555	658.375807678653	0.094590721217
1	6558	658.47039839987	0.139694057189
1	6563	658.853234645856	0.094590721217
1	6568	659.488450592564	0.094590721217
1	6573	659.775626406923	0.094590721217
1	6578	660.276037587624	0.094590721217
1	6583	660.481395522285	0.094590721217
1	6588	661.261645153989	0.094590721217
1	6593	661.470603589845	0.094590721217
1	6598	662.037077918628	0.094590721217
1	6603	662.701792716027	0.094590721217
1	6608	663.368201825464	0.094590721217
1	6613	664.956078117352	0.094590721217
1	6618	665.292979610524	0.094590721217
1	6623	665.53255292358	0.094590721217
1	6628	666.312452217416	0.094590721217
1	6633	666.524797952846	0.094590721217
1	6638	666.885896118724	0.094590721217
1	6643	667.621205364474	0.094590721217
1	6648	668.148245689541	0.094590721217
1	6653	668.415374847341	0.094590721217
1	6660	668.955914631834	0.094590721217
1	6663	669.050505353051	0.135052489082
1	6668	669.187381118961	0.094590721217
1	6676	669.622914647522	0.094590721217
1	6681	669.717505368739	0.187152092782
1	6684	669.812096089956	0.138435278565
1	6689	671.415020672682	0.094590721217
1	6694	671.829029092964	0.094590721217
1	6703	674.793869336941	0.094590721217
1	6706	674.888460058158	0.170731660981
1	6709	674.983050779375	0.252562733867
1	6714	675.169340499047	0.094590721217
1	6719	675.966100865379	0.094590721217
1	6724	676.064675584715	0.094590721217
1	6729	676.403282960528	0.094590721217
1	6736	676.532016482207	0.094590721217
1	6739	676.626607203424	0.110602724574
1	6744	676.739426376635	0.094590721217
1	6749	677.255227801815	0.094590721217
1	6754	677.691503076981	0.094590721217
1	6759	678.163089517852	0.094590721217
1	6764	679.25099000296	0.094590721217
1	6773	680.363222817738	0.094590721217
1	6776	680.457813538955	0.16956941468
1	6779	680.552404260172	0.206817602714
1	6784	680.918835370244	0.094590721217
1	6789	681.071584604746	0.094590721217
1	6794	682.459223013295	0.094590721217
1	6799	682.770855367952	0.094590721217
1	6804	683.031499265525	0.094590721217
1	6809	683.25066193294	0.094590721217
1	6814	683.46892420751	0.094590721217
1	6819	683.679171863575	0.094590721217
1	6824	684.003327112345	0.094590721217
1	6829	684.306107559236	0.094590721217
1	6834	684.607964976108	0.094590721217
1	6839	686.585748670665	0.094590721217
1	6844	686.731135280455	0.094590721217
1	6849	687.139794047155	0.094590721217
1	6854	687.627980351076	0.094590721217
1	6859	688.179815840081	0.094590721217
1	6866	689.186531848839	0.094590721217
1	6869	689.281122570056	0.129227799285
1	6874	689.993390222783	0.094590721217
1	6879	690.714464897198	0.094590721217
1	6884	691.317828151349	0.094590721217
1	6889	692.128380610175	0.094590721217
1	6894	692.262375369404	0.094590721217
1	6899	692.560806895927	0.094590721217
1	6904	693.647246580639	0.094590721217
1	6909	694.477122314517	0.094590721217
1	6914	694.578514068703	0.094590721217
1	6921	696.188210300228	0.094590721217
1	6924	696.282801021445	0.185919763224
1	6929	696.757799340554	0.094590721217
1	6934	697.185376414468	0.094590721217
1	6939	698.144220761333	0.094590721217
1	6946	698.344002520977	0.094590721217
1	6949	698.438593242194	0.172703660311
1	6954	699.480610374019	0.094590721217
1	6959	700.132830200877	0.094590721217
1	6964	700.260067301501	0.094590721217
1	6969	700.503112298172	0.094590721217
1	6974	701.034850303259	0.094590721217
1	6979	701.589528944008	0.094590721217
1	6984	701.834538277383	0.094590721217
1	6989	703.296916131364	0.094590721217
1	6994	703.838258158764	0.094590721217
1	6999	705.688594573949	0.094590721217
1	7004	705.835303194977	0.094590721217
1	7009	707.434541949652	0.094590721217
1	7018	707.907343278933	0.094590721217
1	7021	708.00193400015	0.116961285647
1	7025	708.348811226554	0.459706763752
1	7030	708.447911699039	0.094590721217
1	7035	708.732378848197	0.094590721217
1	7042	709.07495715231	0.094590721217
1	7047	709.169547873527	0.167890586985
1	7050	709.264138594744	0.097523468397
1	7055	709.413636213452	0.094590721217
1	7060	709.643182534972	0.094590721217
1	7065	709.990556039778	0.094590721217
1	7070	710.432954615333	0.094590721217
1	7075	710.674291709876	0.094590721217
1	7080	711.059817172635	0.094590721217
1	7085	711.601371307491	0.094590721217
1	7090	713.141898929007	0.094590721217
1	7095	713.312325550399	0.094590721217
1	7100	713.790207687526	0.094590721217
1	7105	714.589755005435	0.094590721217
1	7110	715.480307096358	0.094590721217
1	7115	715.994160115916	0.094590721217
1	7120	717.002854483303	0.094590721217
1	7125	717.268887601392	0.094590721217
1	7130	717.38923448431	0.094590721217
1	7135	717.483885931946	0.094590721217
1	7142	718.057440000659	0.094590721217
1	7145	718.152030721876	0.159442923901
1	7150	718.44774764778	0.094590721217
1	7155	718.99153552062	0.094590721217
1	7162	720.541845529835	0.094590721217
1	7165	720.636436251052	0.183889515961
1	7170	720.766313825428	0.094590721217
1	7179	721.177662010536	0.094590721217
1	7184	721.272252731753	0.18740787911
1	7189	721.36684345297	0.227453264892
1	7192	721.461434174187	0.217117003284
1	7195	721.556024895404	0.247212386123
1	7202	722.889210442756	0.094590721217
1	7205	722.983801163973	0.099287358116
1	7210	723.211794609861	0.094590721217
1	7217	723.555337384915	0.094590721217
1	7222	723.649928106132	0.109852281044
1	7225	723.744518827349	0.123839773925
1	7232	724.097966451616	0.094590721217
1	7235	724.192557172833	0.136149363391
1	7242	724.665525910072	0.094590721217
1	7245	724.760116631289	0.187040428038
1	7250	725.35306514835	0.094590721217
1	7255	725.482339368533	0.094590721217
1	7260	727.588650065982	0.094590721217
1	7267	728.453720900101	0.094590721217
1	7270	728.548311621318	0.146874944045
1	7275	728.719458425197	0.094590721217
1	7280	728.849436305168	0.094590721217
1	7285	730.01271426427	0.094590721217
1	7292	730.60211740928	0.094590721217
1	7295	730.696708130497	0.132098790254
1	7300	732.162944173582	0.094590721217
1	7305	732.755875785665	0.094590721217
1	7312	732.903366498408	0.094590721217
1	7317	732.997957219625	0.102674836564
1	7322	733.092547940842	0.096613562187
1	7325	733.187138662059	0.136946248664
1	7330	733.500149008989	0.094590721217
1	7335	734.093910966027	0.094590721217
1	7340	734.641686834444	0.094590721217
1	7345	735.151655659868	0.094590721217
1	7350	735.340952560318	0.094590721217
1	7355	735.74904216316	0.094590721217
1	7362	737.181737999839	0.094590721217
1	7365	737.276328721056	0.106004098271
[...]
7	9351	928.804973462636	0
7	9356	929.423438428173	0
7	9361	929.815340839841	0
7	9366	930.748609671614	0
7	9371	931.060527858052	0
7	9376	931.234609362158	0
7	9381	932.234809705295	0
7	9386	932.65854142652	0
7	9393	932.847824169973	0
7	9396	932.94241489119	0
7	9401	933.455723369901	0
7	9406	934.869299821578	0
7	9411	935.678078238169	0
7	9418	936.097102124234	0
7	9421	936.191692845451	0
7	9426	936.785374958033	0
7	9431	937.92417022393	0
7	9436	938.604812399485	0
7	9441	939.21711675056	0
7	9448	939.673441400513	0
7	9453	939.76803212173	0
7	9456	939.862622842947	0
7	9461	940.118190854995	0
7	9466	941.371873100152	0
7	9471	941.522910308652	0
7	9476	941.744115175191	0
7	9482	942.162522607882	0
7	9487	943.543149903313	0
7	9492	944.405943213698	0
7	9497	944.791719146022	0
7	9502	945.013088475171	0
7	9509	945.163600806098	0
7	9514	945.258191527315	0
7	9517	945.352782248532	0
7	9522	945.833365179994	0
7	9527	945.939247716637	0
7	9532	946.257219169485	0
7	9537	946.738607714696	0
7	9542	946.926618045275	0
7	9547	947.026470931656	0
7	9556	947.334397524528	0
7	9559	947.428988245745	0
7	9562	947.523578966962	0
7	9567	947.696791603366	0
7	9572	948.313332706139	0
7	9577	949.483608204613	0
7	9582	950.115879593082	0
7	9587	950.488751555855	0
7	9592	950.648007148098	0
7	9599	951.733254310461	0
7	9602	951.827845031678	0
7	9607	952.427684102367	0
7	9612	952.615355116134	0
7	9617	953.064709244813	0
7	9624	953.183446038822	0
7	9627	953.278036760039	0
7	9634	953.48490399221	0
7	9637	953.579494713427	0
7	9644	954.408212645568	0
7	9647	954.502803366785	0
7	9652	954.765591446609	0
7	9657	955.565166026853	0
7	9662	955.751273274554	0
7	9667	956.120207976843	0
7	9672	956.775562791831	0
7	9679	956.875939520609	0
7	9682	956.970530241826	0
7	9687	959.496062235333	0
7	9692	960.306216313311	0
7	9697	960.946289486562	0
7	9704	961.199250454309	0
7	9707	961.293841175526	0
7	9712	962.424614487509	0
7	9717	962.68133333246	0
7	9722	963.207949109389	0
7	9727	963.411412725141	0
7	9734	963.843397400269	0
7	9737	963.937988121486	0
7	9742	964.178851770201	0
7	9747	964.650535192888	0
7	9752	964.809178794057	0
7	9759	965.662615765863	0
7	9764	965.75720648708	0
7	9767	965.851797208297	0
7	9772	966.157301226856	0
7	9777	967.487658201348	0
7	9784	967.795022460027	0
7	9787	967.889613181244	0
7	9792	968.19169962039	0
7	9797	968.514005011307	0
7	9802	969.044884083054	0
7	9807	969.35416459252	0
7	9812	969.7714507961	0
7	9817	969.968360016556	0
7	9824	970.400991855648	0
7	9829	970.495582576865	0
7	9839	970.842459803269	0
7	9842	970.937050524486	0
7	9845	971.031641245703	0
7	9848	971.12623196692	0
7	9853	972.137645961238	0
7	9860	972.349038763805	0
7	9863	972.443629485022	0
7	9868	973.8009159387	0
7	9875	973.999889514343	0
7	9878	974.09448023556	0
7	9883	974.999260273552	0
7	9888	975.553587109022	0
7	9895	975.841340583002	0
7	9898	975.935931304219	0
7	9903	977.25303018218	0
7	9908	978.06124939473	0
7	9913	980.958924146864	0
7	9918	983.109523273536	0
7	9923	983.404401615473	0
7	9928	983.573707841464	0
7	9933	983.859706423872	0
7	9938	984.179676969605	0
7	9943	984.274880558222	0
7	9948	985.353753273562	0
7	9953	986.32817312097	0
7	9958	987.107886839119	0
7	9963	987.285306746934	0
7	9968	988.32769924744	0
7	9973	988.529370365841	0
7	9978	988.97203212782	0
7	9983	989.368528538366	0
7	9992	990.666664548585	0
7	9995	990.761255269802	0
7	10000	990.855845991019	0
7	10003	990.950436712236	0
7	10008	991.1710228094	0
7	10013	991.633824286891	0
7	10020	992.768749931446	0
7	10023	992.863340652663	0
7	10030	993.216919746949	0
7	10033	993.311510468166	0
7	10040	993.489513297518	0
7	10043	993.584104018735	0
7	10050	993.81506631148	0
7	10053	993.909657032697	0
7	10060	994.19464029873	0
7	10063	994.289231019947	0
7	10068	995.01277336106	0
7	10073	995.54599598304	0
7	10078	997.046401762619	0
7	10083	997.286652700956	0
7	10090	998.604085509414	0
7	10093	998.698676230631	0
7	10100	998.962516700062	0
7	10103	999.057107421279	0
7	10108	999.322567410299	0
7	10115	999.743763664661	0
7	10118	999.838354385878	0
8	41	4.701116239068	0.076207045041
8	111	12.087929343072	0.088242586403
8	156	16.385151942789	0.064228039206
8	161	16.479742664006	0.086605234171
8	166	16.574333385223	0.010064953575
8	251	26.95922260539	0.018681799269
8	273	27.563057213671	0.070942474849
8	276	27.657647934888	0.125985822053
8	311	33.387334362082	0.007734223611
8	362	43.436376388024	0.090862780627
8	422	50.953672357326	0.024519162422
8	427	51.048263078543	0.027984625461
8	442	52.511820852558	0.092161016296
8	479	58.202150798248	0.091243806358
8	482	58.296741519465	0.13088928295
8	517	61.248295940515	0.080669119594
8	527	61.750748917321	0.047004040928
8	552	64.262192773315	0.072023475036
8	567	65.924682022704	0.089480916182
8	587	67.383354329659	0.020878955328
8	652	76.68090302212	0.020150127473
8	704	82.628222331222	0.191771168392
8	728	85.378681491767	0.060566839361
8	743	87.522366118946	0.060824007457
8	763	89.59388274289	0.087376812364
8	780	90.369288264908	0.091935205058
8	783	90.463878986125	0.153633130006
8	818	93.906399504239	0.025808821978
8	823	94.000990225456	0.077327412298
8	828	94.095580946673	0.026976019612
8	845	95.584673522625	0.073096870032
8	848	95.679264243842	0.130359409405
8	943	105.688932226856	0.046132648756
8	960	106.344829172602	0.088997812569
8	963	106.439419893819	0.149208462495
8	968	106.534010615036	0.00388705929
8	1013	110.736458708821	0.025273197062
8	1023	111.04739473135	0.043255100085
8	1139	125.204758058835	0.064805556033
8	1154	126.180112791093	0.081965089217
8	1244	133.878632656717	0.038998699772
8	1264	135.951915755891	0.04393912018
8	1279	137.519177906509	0.024478055348
8	1284	137.613768627726	0.026798610422
8	1289	137.708359348943	0.088342244153
8	1314	139.312956408965	0.037107653402
8	1319	139.407547130182	0.035020365211
8	1349	141.838899109585	0.019527763597
8	1378	145.246846118108	0.024163784494
8	1381	145.341436839325	0.105433538344
8	1384	145.436027560542	0.191400818332
8	1450	154.101619033066	0.040398189807
8	1485	157.790304676273	0.088301264709
8	1530	162.782549222617	0.058420110179
8	1550	164.313763079689	0.0207591309
8	1560	165.105096787018	0.061585768399
8	1575	166.737789073452	0.036171522917
8	1590	167.634347032016	0.031404095871
8	1640	171.66409536457	0.041478492362
8	1645	171.758686085787	0.056601191507
8	1660	172.905984367146	0.024697183257
8	1675	174.21836640426	0.0720167875
8	1680	174.312957125477	0.022750667697
8	1692	174.720134540447	0.094282579819
8	1695	174.814725261664	0.123205809318
8	1705	175.343275297782	0.021855903047
8	1750	181.981965978718	0.080282768431
8	1806	189.410217341944	0.092578261007
8	1841	194.297673858627	0.03517939561
8	1861	197.171252935754	0.062598097924
8	1921	200.501456331851	0.07099320009
8	1971	204.416506308601	0.008812306693
8	1996	206.864381459623	0.022717995871
8	2041	212.842709129698	0.086209202458
8	2066	214.753151856265	0.062770743816
8	2093	218.870941348478	0.047644632307
8	2096	218.965532069695	0.101170880216
8	2101	219.060122790912	0.001154452891
8	2112	219.585998240328	0.079349963188
8	2162	224.634859494458	0.087147814012
8	2199	227.49781438287	0.063019607622
8	2202	227.592405104087	0.114930394744
8	2212	227.967756174287	0.008030326699
8	2252	231.429453627485	0.066473322342
8	2292	236.270337784848	0.051488563676
8	2322	240.855706784581	0.017745607984
8	2357	247.179106808178	0.079128157905
8	2362	247.273697529395	0.065667906737
8	2369	247.368288250612	0.094030281612
8	2372	247.462878971829	0.140847960748
8	2447	256.446883508934	0.048177451636
8	2461	258.946590715623	0.227486869336
8	2463	259.04118143684	0.143789436467
8	2478	260.4020499873	0.026374043906
8	2533	264.667932031003	0.044424730641
8	2553	267.341294023843	0.018370900758
8	2558	267.43588474506	0.024690710635
8	2598	274.866840023531	0.0718248557
8	2608	275.234733780388	0.04897144723
8	2623	276.170477325053	0.082962906326
8	2655	278.252434885782	0.075837896646
8	2658	278.347025606999	0.143288876595
8	2708	285.243470189071	0.032301057881
8	2728	286.682616822767	0.074038588763
8	2733	286.777207543984	0.069628838448
8	2743	288.609355987401	0.006431036728
8	2748	288.703946708618	0.013351544276
8	2753	288.798537429835	0.08207873202
8	2760	288.893128151052	0.073381359892
8	2763	288.987718872269	0.13329589783
8	2788	289.996549712624	0.071291878124
8	2854	295.109863442696	0.012929483376
8	2879	298.286844818263	0.063282083364
8	2906	303.554121299504	0.081113486393
8	2909	303.648712020721	0.172982203049
8	3069	318.54824672866	0.04476315045
8	3109	323.332402130145	0.060253918413
8	3182	332.036142595397	0.072632021795
8	3189	332.130733316614	0.154692625109
8	3192	332.225324037831	0.142761005259
8	3195	332.319914759048	0.191018007308
8	3205	332.632048456746	0.028045721061
8	3230	338.778115797631	0.021466910043
8	3280	342.74798051597	0.082948921222
8	3295	343.728583272703	0.062019242824
8	3380	352.421540955147	0.087326713068
8	3390	353.501555926039	0.08557390021
8	3405	355.01663870095	0.077285841112
8	3432	358.100017588995	0.056755250432
8	3435	358.194608310212	0.107456157141
8	3445	358.541959820347	0.008960403158
8	3505	366.249535759394	0.082586876929
8	3514	366.596412985798	0.231420241112
8	3516	366.691003707015	0.221192711186
8	3531	368.495546219149	0.010662629428
8	3536	368.590136940366	0.022076554911
8	3576	372.744988820872	0.077938149045
8	3591	374.522890275627	0.042015788835
8	3636	378.3155652616	0.006771295168
8	3646	379.402603505605	0.077842450591
8	3655	379.497194226822	0.091443642865
8	3658	379.591784948039	0.148723561902
8	3661	379.686375669256	0.206687202404
8	3671	380.830993371969	0.034253477365
8	3690	382.371694687984	0.086724552516
8	3693	382.466285409201	0.160356035511
8	3696	382.560876130418	0.254711895365
8	3701	382.655466851635	0.093960548467
8	3756	388.930286435326	0.011557927853
8	3766	389.256520628622	0.032290016959
8	3776	390.464728210629	0.028323991762
8	3872	401.428947234824	0.063995134078
8	3892	404.499447222129	0.071011047573
8	3917	408.626972427914	0.007902497348
8	3932	409.564609487948	0.073740862212
8	3974	412.412403794349	0.092843591273
8	3977	412.506994515566	0.148287707652
8	3992	412.875246668637	0.073171235431
8	4012	414.057611608185	0.01085631539
8	4027	414.503663795884	0.005032016667
8	4034	414.598254517101	0.086254091886
8	4037	414.692845238318	0.128027072723
8	4052	415.089583470464	0.055908404166
8	4077	418.307094291227	0.024749610578
8	4112	422.220702904675	0.017488117644
8	4147	429.228582970118	0.057189119736
8	4187	434.040411977379	0.025719722688
8	4253	442.103918938381	0.054439700144
8	4268	442.978095487296	0.073775223148
8	4288	444.182423910445	0.005294001496
8	4308	445.582711229722	0.029915840366
8	4318	447.214691485097	0.018070362067
8	4328	447.409360433709	0.084527770895
8	4338	447.764938991835	0.048643293208
8	4368	448.84160108157	0.022057570704
8	4373	448.936191802787	0.05534991454
8	4403	452.634135864253	0.091124039213
8	4408	452.72872658547	0.001592540807
8	4423	453.183081163859	0.064435751293
8	4470	457.208494835556	0.024391971876
8	4473	457.303085556773	0.101487490754
8	4565	469.531765457111	0.341070530498
8	4684	480.10047087114	0.032346495028
8	4711	481.572501515653	0.082085466424
8	4714	481.66709223687	0.168369770662
8	4721	481.761682958087	0.063211560143
8	4726	481.856273679304	0.096947124914
8	4729	481.950864400521	0.148812262247
8	4754	485.157788747816	0.017655145874
8	4784	488.848886592178	0.01671271429
8	4796	489.9712697341	0.04667605127
8	4799	490.065860455317	0.130874097043
8	4829	491.808536176987	0.073650417846
8	4851	493.337833117721	0.071066081847
8	4854	493.432423838938	0.106018127376
8	4975	511.052328746421	0.077919221213
8	5005	513.891602156266	0.093606094582
8	5010	513.986192877483	0.01261702147
8	5080	520.827780756215	0.065834047928
8	5085	520.922371477432	0.093702659623
8	5090	521.016962198649	0.03511378358
8	5100	521.210935903554	0.036857080643
8	5115	523.543748463168	0.020089702041
8	5127	523.757584701555	0.036783277568
8	5130	523.852175422772	0.109036787632
8	5135	523.946766143989	0.011565606575
8	5179	527.155412739619	0.035591074635
8	5182	527.250003460836	0.109924456887
8	5185	527.344594182053	0.189857715382
8	5269	534.628200558609	0.202414785729
8	5271	534.722791279826	0.129809492879
8	5281	535.610350257032	0.037240363123
8	5331	539.142299436795	0.067161672268
8	5336	539.236890158012	0.063668531442
8	5371	543.317643929099	0.074309430039
8	5411	550.414081422923	0.07654900928
8	5428	551.49308662971	0.043518806509
8	5433	551.587677350927	0.115804207803
8	5436	551.682268072144	0.169144324525
8	5443	551.776858793361	0.080075325805
8	5450	551.871449514578	0.102395151814
8	5453	551.966040235795	0.167076033153
8	5456	552.060630957012	0.24507224342
8	5466	552.471921773828	0.020114060412
8	5491	556.063860144947	0.04711773474
8	5511	558.996983870289	0.054750995346
8	5568	564.825657004464	0.092348349114
8	5571	564.920247725681	0.183919809868
8	5581	565.272050033717	0.029123932647
8	5586	565.366640754934	0.009424035325
8	5622	569.305792590357	0.295362009922
8	5624	569.400383311574	0.242011420677
8	5627	569.494974032791	0.200823953561
8	5642	571.528078545646	0.078878406144
8	5664	574.38075477725	0.092035171492
8	5667	574.475345498467	0.119023199685
8	5717	581.253090451829	0.08196040961
8	5727	581.514462761042	0.029472952582
8	5732	581.609053482259	0.057669337733
8	5812	589.008220423119	0.077169677829
8	5832	590.564201353477	0.079052495106
8	5842	590.929668355988	0.057750661358
8	5877	596.105124281831	0.069523478864
8	5962	604.881613501741	0.069410577585
8	5988	607.279866266073	0.062315241362
8	5998	607.639009738564	0.087807460235
8	6025	611.737216601385	0.066018110962
8	6028	611.831807322602	0.104638213513
8	6043	612.391307539799	0.018383290424
8	6048	612.485898261016	0.037193040846
8	6078	614.869106102127	0.052509562609
8	6093	616.566516236621	0.07574428887
8	6123	618.537038362686	0.008710237499
8	6248	631.09806433292	0.082663635199
8	6260	632.730100378394	0.059628496027
8	6263	632.824691099611	0.136242912364
8	6278	633.442566079444	0.020406121694
8	6288	633.908316454823	0.042667245468
8	6298	634.971949969628	0.016696861481
8	6324	636.610769212148	0.01489528455
8	6334	636.894350928782	0.074407968707
8	6359	639.034527768584	0.079673031095
8	6369	640.075007457427	0.021693355875
8	6454	648.691227761239	0.00791149583
8	6494	653.92088183365	0.076350807204
8	6524	656.115700794331	0.062874935492
8	6544	657.63523058015	0.00466998257
8	6554	658.375807678653	0.045103335972
8	6659	668.955914631834	0.040461767865
8	6675	669.622914647522	0.092561371565
8	6680	669.717505368739	0.043844557348
8	6702	674.793869336941	0.076140939764
8	6705	674.888460058158	0.15797201265
8	6735	676.532016482207	0.016012003357
8	6772	680.363222817738	0.074978693463
8	6775	680.457813538955	0.112226881497
8	6865	689.186531848839	0.034637078068
8	6920	696.188210300228	0.091329042007
8	6945	698.344002520977	0.078112939094
8	7017	707.907343278933	0.02237056443
8	7022	708.254220505337	0.365116042535
8	7041	709.07495715231	0.073299865768
8	7046	709.169547873527	0.00293274718
8	7141	718.057440000659	0.064852202684
8	7161	720.541845529835	0.089298794744
8	7178	721.177662010536	0.092817157893
8	7183	721.272252731753	0.132862543675
8	7188	721.36684345297	0.122526282067
8	7191	721.461434174187	0.152621664906
8	7201	722.889210442756	0.004696636899
8	7216	723.555337384915	0.015261559827
8	7221	723.649928106132	0.029249052708
8	7231	724.097966451616	0.041558642174
8	7241	724.665525910072	0.092449706821
8	7266	728.453720900101	0.052284222828
8	7291	730.60211740928	0.037508069037
8	7311	732.903366498408	0.008084115347
8	7316	732.997957219625	0.00202284097
8	7321	733.092547940842	0.042355527447
8	7361	737.181737999839	0.011413377054
8	7373	737.696444065985	0.288439042471
8	7377	737.791034787202	0.00885858127
8	7417	740.834996042594	0.001384594462
8	7424	740.929586763811	0.070515463
8	7429	741.024177485028	0.163505103403
8	7432	741.118768206245	0.116149755643
8	7437	741.213358927462	0.074523649691
8	7456	743.793899175228	0.059237850785
8	7459	743.888489896445	0.144886481182
8	7462	743.983080617662	0.197752566325
8	7482	744.99743206781	0.057921801669
8	7542	752.103385685796	0.036720897877
8	7557	753.40686890999	0.030102258985
8	7567	753.750086351643	0.025453963603
8	7597	756.599180160481	0.085520130643
8	7602	756.693770881698	0.084987642994
8	7657	762.561655424593	0.053740903344
8	7667	762.938535993452	0.03455493183
8	7677	763.33103448452	0.091576374868
8	7682	763.425625205737	0.002844639845
8	7692	763.735389644214	0.010700827074
8	7712	765.038714152637	0.08248995042
8	7738	769.099261630217	0.012729812907
8	7743	769.193852351434	0.011828002439
8	7878	786.986548946419	0.054504066713
8	7913	791.542563538596	0.02372992558
8	7923	791.760974179751	0.050481502974
8	7953	794.368752091652	0.081867388286
8	7958	794.463342812869	0.086024939831
8	7998	798.135214488338	0.023906353508
8	8013	800.077062136311	0.002871805378
8	8104	809.05212542975	0.038560211979
8	8111	809.146716150967	0.082743386766
8	8116	809.241306872184	0.126510750424
8	8119	809.335897593401	0.159089533116
8	8154	811.614876661458	0.070756065046
8	8159	811.709467382675	0.074002947214
8	8194	814.017952366166	0.049362085727
8	8244	819.408172954414	0.062594755818
8	8274	821.20910988599	0.009253327646
8	8314	826.673743893214	0.012326273941
8	8364	833.832600021944	0.007295319591
8	8379	834.371655118302	0.062202235158
8	8384	834.466245839519	0.007171785649
8	8404	835.996751392145	0.071087624017
8	8409	836.091342113362	0.030641563091
8	8414	836.185932834579	0.079700649303
8	8426	836.934776621072	0.100184149007
8	8440	838.59579796076	0.09361132864
8	8505	845.298572175464	0.029900400963
8	8595	853.328087964103	0.063461755847
8	8620	855.707453352861	0.011807864874
8	8635	857.956758951024	0.048709743844
8	8660	860.845189525047	0.085698051633
8	8695	867.280857395064	0.018712027364
8	8745	874.802465869305	0.02438667898
8	8777	876.468564539287	0.170479266385
8	8781	876.563155260504	0.045886661286
8	8801	878.166361276209	0.018916159732
8	8831	879.685422138465	0.066144084281
8	8851	880.583671496997	0.067488613615
8	8856	880.678262218214	0.046441638439
8	8876	881.931509208053	0.078132899804
8	8886	882.191874893488	0.02497215942
8	8931	885.67169156542	0.034514855891
8	9128	909.26833912992	0.110565077445
8	9142	910.025850128358	0.063743071474
8	9172	913.69247778916	0.06158475798
8	9194	915.580398090956	0.048628763943
8	9197	915.674988812173	0.116760305233
8	9258	919.33024359518	0.086484550691
8	9261	919.424834316397	0.13386077442
8	9264	919.519425037614	0.222517954496
8	9267	919.614015758831	0.291577341606
8	9312	924.071212112459	0.067958428772
8	9322	924.391465848127	0.082638998032
8	9337	926.804140576807	0.017025711646
8	9392	932.847824169973	0.089230098097
8	9417	936.097102124234	0.035159868416
8	9447	939.673441400513	0.016345705818
8	9452	939.76803212173	0.043815522282
8	9508	945.163600806098	0.070474922553
8	9513	945.258191527315	0.061152065506
8	9555	947.334397524528	0.023975596302
8	9558	947.428988245745	0.108305638356
8	9598	951.733254310461	0.078758077709
8	9623	953.183446038822	0.067776794934
8	9633	953.48490399221	0.048602977241
8	9643	954.408212645568	0.072854442475
8	9678	956.875939520609	0.088374057015
8	9703	961.199250454309	0.002753063832
8	9733	963.843397400269	0.029146306846
8	9758	965.662615765863	0.058529524026
8	9763	965.75720648708	0.058975971667
8	9783	967.795022460027	0.039119871384
8	9823	970.400991855648	0.08350659174
8	9836	970.747869082052	0.339918585858
8	9838	970.842459803269	0.317913556683
8	9841	970.937050524486	0.299655675216
8	9844	971.031641245703	0.294420254372
8	9859	972.349038763805	0.075398336498
8	9874	973.999889514343	0.0580837128
8	9894	975.841340583002	0.030322023848
8	9991	990.666664548585	0.086577631489
8	9994	990.761255269802	0.16562117009
8	9999	990.855845991019	0.003908214946
8	10019	992.768749931446	0.0930657193
8	10029	993.216919746949	0.066107111638
8	10039	993.489513297518	0.054906608549
8	10049	993.81506631148	0.020316471
8	10059	994.19464029873	0.061201265515
8	10089	998.604085509414	0.013090104164
8	10099	998.962516700062	0.03135752141
8	10114	999.743763664661	0.088005938901

