version 2
run General-37-20240201-11:04:14-40057
attr configname General
attr datetime 20240201-11:04:14
attr experiment General
attr inifile main.ini
attr iterationvars "$0=2.0, $1=1.7, $2=50"
attr iterationvarsf 2.0,1.7,50-
attr measurement "$0=2.0, $1=1.7, $2=50"
attr network Rete
attr processid 40057
attr repetition 17
attr replication #17
attr resultdir results
attr runnumber 37
attr seedset 37
param Rete.lambda 2.0
param Rete.a 0.3s
param Rete.b 1.7s
param Rete.c 0.1s
param Rete.d 0.3s
param Rete.mu 3.0
param Rete.source2.interArrivalTime exponential(1s/lambda)
param Rete.source2.jobServiceTime exponential(1s/mu)
param Rete.source2.deadline uniform(a,b)
param Rete.server2.j 50
param Rete.server2.V uniform(c,d)

vector 0 Rete.passiveQueue queueLength:vector ETV
attr interpolationmode sample-hold
attr title "queue length, vector"
vector 1 Rete.passiveQueue queueingTime:vector ETV
attr interpolationmode none
attr title "queueing time at dequeue, vector"
attr unit s
vector 2 Rete.sink lifeTime:vector ETV
attr interpolationmode none
attr title "lifetime of arrived jobs, vector"
attr unit s
vector 3 Rete.sink totalQueueingTime:vector ETV
attr interpolationmode none
attr title "the total time spent in queues by arrived jobs, vector"
attr unit s
vector 4 Rete.sink queuesVisited:vector ETV
attr interpolationmode none
attr title "the total number of queues visited by arrived jobs, vector"
vector 5 Rete.sink totalServiceTime:vector ETV
attr interpolationmode none
attr title "the total time spent  by arrived jobs, vector"
attr unit s
vector 6 Rete.sink totalDelayTime:vector ETV
attr interpolationmode none
attr title "the total time spent in delay nodes by arrived jobs, vector"
attr unit s
vector 7 Rete.sink delaysVisited:vector ETV
attr interpolationmode none
attr title "the total number of delays visited by arrived jobs, vector"
vector 8 Rete.sink generation:vector ETV
attr interpolationmode none
attr title "the generation of the arrived jobs, vector"
0	0	0	0
0	5	1.552744373618	1
0	6	1.653590311822	0
0	20	2.880007708897	1
0	21	2.902648065602	0
0	40	4.951508099805	1
0	42	5.006101768322	2
0	43	5.124800218364	1
0	46	5.332734982907	0
0	63	6.842666086269	1
0	64	6.884972566433	0
0	68	6.911674952506	1
0	69	7.092907330976	0
0	78	7.794247718226	1
0	79	7.819653415096	0
0	108	10.228698426205	1
0	109	10.433984193761	0
0	133	14.20707938842	1
0	134	14.305435717694	0
0	138	14.467986442831	1
0	139	14.513370482237	0
0	148	14.971262588573	1
0	149	15.129030937696	0
0	183	19.996746073718	1
0	185	20.133389231361	2
0	186	20.178386494068	1
0	190	20.205793448971	2
0	191	20.386321258611	1
0	194	20.594256023154	0
0	201	21.248353611617	1
0	203	21.361292621934	2
0	204	21.394057191847	1
0	208	21.588141082099	2
0	209	21.60199195639	1
0	212	21.809926720933	0
0	241	25.697314364282	1
0	242	25.70278206171	0
0	258	26.874868141294	1
0	259	26.899498630185	0
0	262	26.973446129641	1
0	263	27.107433394728	0
0	292	30.28954710885	1
0	293	30.386621758157	0
0	322	32.126826120346	1
0	323	32.314300786794	0
0	327	32.474787751528	1
0	328	32.522235551337	0
0	347	34.243322438649	1
0	349	34.25298368574	2
0	350	34.276419661066	1
0	354	34.308616812299	2
0	355	34.484354425609	1
0	358	34.692289190152	0
0	380	37.611110228149	1
0	382	37.705535381659	2
0	383	37.817239793061	1
0	387	38.018497847253	2
0	388	38.025174557604	1
0	390	38.025174557604	0
0	393	38.039826182003	1
0	394	38.233109322147	0
0	398	38.245203904183	1
0	399	38.44104408669	0
0	468	48.57571074905	1
0	470	48.679983346395	2
0	471	48.763900036386	1
0	474	48.971834800929	0
0	481	49.294119010594	1
0	482	49.45716872147	0
0	486	49.565603733924	1
0	487	49.665103486013	0
0	501	51.299403082313	1
0	502	51.339721923022	0
0	532	56.839876108055	1
0	533	56.8984818141	0
0	542	58.871307157783	1
0	543	58.899417533963	0
0	557	59.874273129229	1
0	558	59.880959634954	0
0	562	60.079227593013	1
0	563	60.088894399497	0
0	602	63.427806758707	1
0	603	63.52906085205	0
0	612	64.432739549375	1
0	613	64.629852655347	0
0	617	64.637499545635	1
0	618	64.83778741989	0
0	647	67.592783231314	1
0	648	67.686223600923	0
0	652	67.725393104098	1
0	654	67.745613706298	2
0	655	67.894158365466	1
0	659	68.096889442392	2
0	660	68.102093130009	1
0	662	68.102093130009	0
0	690	72.527961153327	1
0	691	72.641330575762	0
0	720	75.875651813023	1
0	721	75.933457307024	0
0	725	76.137982696594	1
0	726	76.141392071567	0
0	740	78.293375979388	1
0	742	78.330398550237	2
0	743	78.404383751441	1
0	746	78.612318515984	0
0	750	78.718925510513	1
0	751	78.820253280527	0
0	772	80.236786783722	1
0	773	80.242510300136	0
0	781	81.089263375094	1
0	782	81.204769576178	0
0	791	81.575115614348	1
0	792	81.629259254793	0
0	796	81.770599980309	1
0	797	81.837194019336	0
0	801	81.95456123811	1
0	803	82.028491956658	2
0	804	82.045128783879	1
0	807	82.253063548422	0
0	841	86.343650263233	1
0	842	86.515582242848	0
0	846	86.541271967463	1
0	848	86.620547770076	2
0	850	86.676379448852	3
0	851	86.723517007391	2
0	855	86.733470227891	3
0	857	86.857730651626	4
0	858	86.931451771934	3
0	860	86.931451771934	2
0	862	87.139386536477	1
0	864	87.139386536477	0
0	867	87.192127970459	1
0	868	87.34732130102	0
0	877	87.817540933729	1
0	879	87.924870854972	2
0	880	87.946398580294	1
0	884	87.987616465469	2
0	886	88.05256813956	3
0	887	88.154333344837	2
0	890	88.36226810938	1
0	892	88.36226810938	0
0	908	89.895459872945	1
0	909	89.923379316085	0
0	913	90.114567385805	1
0	914	90.131314080628	0
0	923	90.420173138673	1
0	924	90.554559614709	0
0	988	97.763523100844	1
0	990	97.793533074777	2
0	991	97.83094324281	1
0	994	98.038878007353	0
0	1013	99.562421443263	1
0	1014	99.568243981429	0
0	1018	99.71353118403	1
0	1019	99.776178745972	0
0	1044	102.249641858508	1
0	1045	102.267232608601	0
0	1069	105.002454359497	1
0	1070	105.11545441913	0
0	1084	105.995660519299	1
0	1085	106.157525949347	0
0	1089	106.34973437494	1
0	1090	106.36546071389	0
0	1094	106.435685389704	1
0	1095	106.573395478433	0
0	1109	107.614002901149	1
0	1110	107.774193898462	0
0	1114	107.870080044094	1
0	1116	107.872139521216	2
0	1117	107.982128663005	1
0	1120	108.190063427548	0
0	1137	110.230691456281	1
0	1138	110.397777474065	0
0	1152	111.541165777883	1
0	1154	111.553730314324	2
0	1155	111.563978736905	1
0	1159	111.688057544695	2
0	1160	111.771913501448	1
0	1163	111.979848265991	0
0	1170	112.696192029116	1
0	1171	112.727418054444	0
0	1175	112.785051427102	1
0	1176	112.935352818987	0
0	1260	123.734527116025	1
0	1261	123.932936976803	0
0	1270	124.622025860664	1
0	1272	124.679308749572	2
0	1273	124.794585625859	1
0	1277	124.813681832702	2
0	1278	125.002520390402	1
0	1280	125.002520390402	0
0	1293	126.795782254416	1
0	1296	127.074038673937	0
0	1299	127.163936106729	1
0	1301	127.181085124784	2
0	1302	127.28197343848	1
0	1305	127.489908203023	0
0	1312	128.034272201746	1
0	1313	128.219644937811	0
0	1317	128.233010466187	1
0	1319	128.325980544908	2
0	1320	128.427579702354	1
0	1323	128.635514466897	0
0	1330	129.760722525997	1
0	1332	129.801033428404	2
0	1333	129.833107117486	1
0	1336	130.041041882029	0
0	1355	132.486677436141	1
0	1356	132.491246861007	0
0	1375	134.532160747873	1
0	1376	134.662568343361	0
0	1385	136.262693649766	1
0	1386	136.31923734409	0
0	1390	136.353630452602	1
0	1391	136.527172108633	0
0	1420	139.650809116737	1
0	1421	139.758049739614	0
0	1445	141.465015251434	1
0	1447	141.52153059773	2
0	1448	141.646535039536	1
0	1451	141.854469804079	0
0	1488	146.391363191048	1
0	1489	146.513644212218	0
0	1498	147.026708007321	1
0	1499	147.035425097725	0
0	1523	149.474305858816	1
0	1524	149.677503658197	0
0	1543	151.335953742849	1
0	1544	151.514963333648	0
0	1548	151.670403918875	1
0	1549	151.722898098191	0
0	1553	151.796399577984	1
0	1557	151.991828604571	2
0	1559	152.034356676917	3
0	1560	152.135649978762	2
0	1561	152.135649978762	1
0	1564	152.177052552392	2
0	1565	152.343584743305	1
0	1567	152.343584743305	0
0	1570	152.358952751108	1
0	1571	152.551519507848	0
0	1580	152.837604735346	1
0	1581	153.045373446374	0
0	1610	158.407819133779	1
0	1611	158.508615167979	0
0	1635	160.504824872682	1
0	1636	160.688617131594	0
0	1670	163.322553297799	1
0	1671	163.513897575073	0
0	1675	163.522847891862	1
0	1676	163.721832339616	0
0	1690	164.888159269069	1
0	1691	164.918729562309	0
0	1695	165.108089767035	1
0	1696	165.126664326852	0
0	1725	168.871464994134	1
0	1727	168.919216837614	2
0	1728	169.007486390737	1
0	1732	169.020210810009	2
0	1733	169.21542115528	1
0	1735	169.21542115528	0
0	1738	169.26995653771	1
0	1740	169.369358028023	2
0	1741	169.423355919823	1
0	1744	169.631290684366	0
0	1753	170.028229978697	1
0	1754	170.095419037197	0
0	1778	171.993164714133	1
0	1779	172.065458584153	0
0	1783	172.214968333583	1
0	1784	172.273393348696	0
0	1803	173.39713862534	1
0	1804	173.438086748198	0
0	1808	173.49886843323	1
0	1809	173.646021512741	0
0	1813	173.758180952378	1
0	1816	174.058773393312	0
0	1832	176.436067858073	1
0	1833	176.64121952597	0
0	1857	179.353311742629	1
0	1858	179.412618421823	0
0	1872	180.006919115343	1
0	1873	180.201597935581	0
0	1902	185.562363966975	1
0	1903	185.698191074913	0
0	1912	186.206625051529	1
0	1913	186.367803747906	0
0	1937	189.16455346591	1
0	1939	189.176624924212	2
0	1941	189.182849784814	3
0	1942	189.315973007465	2
0	1945	189.523907772008	1
0	1947	189.523907772008	0
0	1958	191.305153445949	1
0	1960	191.359117180085	2
0	1961	191.457167456186	1
0	1965	191.528520942274	2
0	1966	191.665102220729	1
0	1968	191.665102220729	0
0	1976	192.252621296475	1
0	1977	192.441703820496	0
0	1996	193.884931061283	1
0	1997	193.908805895255	0
0	2046	198.282910203416	1
0	2047	198.351580901252	0
0	2061	199.952058852841	1
0	2062	200.104078276277	0
0	2066	200.265107024829	1
0	2067	200.31201304082	0
0	2076	200.651081406314	1
0	2079	200.993950814869	0
0	2140	208.448800377126	1
0	2141	208.623596781275	0
0	2145	208.684911788481	1
0	2146	208.831531545818	0
0	2170	211.114468664239	1
0	2171	211.308560053279	0
0	2180	211.745155666277	1
0	2181	211.812670046267	0
0	2185	211.89939848313	1
0	2186	212.02060481081	0
0	2190	212.095386517435	1
0	2192	212.16883200465	2
0	2193	212.228539575353	1
0	2196	212.436474339896	0
0	2210	213.650018548147	1
0	2212	213.727691060118	2
0	2213	213.812087106711	1
0	2217	213.886444130962	2
0	2218	214.020021871254	1
0	2220	214.020021871254	0
0	2223	214.028804325266	1
0	2224	214.227956635797	0
0	2238	217.215133424804	1
0	2239	217.280943550463	0
0	2243	217.385010144451	1
0	2244	217.488878315006	0
0	2258	218.2478508507	1
0	2259	218.428169644582	0
0	2278	220.636519939763	1
0	2279	220.75016021309	0
0	2288	221.014685066678	1
0	2289	221.205247540143	0
0	2298	222.332891850823	1
0	2299	222.471860157883	0
0	2303	222.56030061551	1
0	2304	222.679794922426	0
0	2323	226.270314169974	1
0	2324	226.37077241799	0
0	2328	226.3785437386	1
0	2330	226.415089014009	2
0	2331	226.578707182533	1
0	2337	226.944951871988	2
0	2338	226.991459063104	1
0	2339	226.991459063104	0
0	2342	227.193224405835	1
0	2343	227.199393827647	0
0	2362	231.927994002676	1
0	2364	231.971068820062	2
0	2366	232.060248455208	3
0	2367	232.075987323606	2
0	2370	232.283922088149	1
0	2372	232.283922088149	0
0	2375	232.381238899562	1
0	2377	232.450946701581	2
0	2378	232.491856852692	1
0	2381	232.699791617235	0
0	2385	232.884012548758	1
0	2386	232.907726381778	0
0	2395	233.667996593518	1
0	2396	233.87585253169	0
0	2405	234.907053635109	1
0	2406	234.927123073926	0
0	2415	236.011446049757	1
0	2416	236.217926925493	0
0	2435	237.62792467417	1
0	2437	237.675587737037	2
0	2438	237.713277777265	1
0	2442	237.859701958458	2
0	2443	237.921212541808	1
0	2446	238.129147306351	0
0	2455	238.932709178209	1
0	2456	239.114577670559	0
0	2460	239.17538288872	1
0	2462	239.249775654399	2
0	2463	239.322512435102	1
0	2466	239.530447199645	0
0	2480	241.951610971874	1
0	2481	241.956555098145	0
0	2485	242.071233313786	1
0	2487	242.087975617168	2
0	2488	242.164489862688	1
0	2491	242.372424627231	0
0	2510	243.532214221196	1
0	2511	243.572031076799	0
0	2515	243.722792761219	1
0	2517	243.763987725742	2
0	2518	243.779965841342	1
0	2521	243.987900605885	0
0	2525	244.163679566974	1
0	2526	244.195835370428	0
0	2530	244.3909200673	1
0	2531	244.403770134971	0
0	2540	244.997957829023	1
0	2541	245.102658104134	0
0	2545	245.115539858321	1
0	2546	245.310592868677	0
0	2565	246.931818069114	1
0	2566	247.135583923991	0
0	2570	247.136832772286	1
0	2571	247.343518688534	0
0	2575	247.413367373987	1
0	2577	247.474720854857	2
0	2578	247.551453453077	1
0	2582	247.588939010312	2
0	2584	247.618395698052	3
0	2586	247.69877325917	4
0	2587	247.75938821762	3
0	2590	247.967322982163	2
0	2592	247.967322982163	1
0	2593	247.967322982163	0
0	2598	248.22038542463	1
0	2599	248.380074862734	0
0	2617	251.757099771926	1
0	2618	251.861316983945	0
0	2627	252.913406645636	1
0	2629	252.948522261218	2
0	2630	252.965916469765	1
0	2634	253.091512738455	2
0	2635	253.173851234308	1
0	2638	253.381785998851	0
0	2680	257.552056400425	1
0	2681	257.733609501736	0
0	2695	258.556201574792	1
0	2696	258.612645898399	0
0	2725	261.983957990855	1
0	2727	262.02518162919	2
0	2728	262.139922140214	1
0	2732	262.168665441944	2
0	2733	262.347856904757	1
0	2735	262.347856904757	0
0	2763	266.703885414814	1
0	2764	266.704316958973	0
0	2773	267.94018912671	1
0	2775	267.952818851856	2
0	2776	268.008615826805	1
0	2779	268.216550591348	0
0	2783	268.312755181772	1
0	2784	268.424485355891	0
0	2793	269.340464610813	1
0	2794	269.424495954458	0
0	2798	269.511285286063	1
0	2800	269.543445724988	2
0	2802	269.579480354552	3
0	2804	269.604462980995	4
0	2805	269.632430719001	3
0	2808	269.840365483544	2
0	2810	269.840365483544	1
0	2813	269.89102191787	2
0	2815	269.943641615123	3
0	2816	270.048300248087	2
0	2818	270.048300248087	1
0	2820	270.25623501263	0
0	2837	272.235338450354	1
0	2838	272.42939951486	0
0	2852	274.105888982781	1
0	2853	274.247829954615	0
0	2857	274.337321532235	1
0	2858	274.455764719158	0
0	2862	274.629582465291	1
0	2864	274.652220916587	2
0	2867	274.868516599729	1
0	2869	275.076451364272	0
0	2881	275.805910321842	1
0	2883	275.92305731386	2
0	2884	275.925521816059	1
0	2887	276.133456580602	0
0	2891	276.214443548076	1
0	2892	276.341391345145	0
0	2896	276.41645458778	1
0	2897	276.549326109688	0
0	2906	277.523218427381	1
0	2907	277.725948708366	0
0	2941	282.203324909861	1
0	2942	282.246388876652	0
0	2946	282.248750949172	1
0	2947	282.454323641195	0
0	2961	284.398545121795	1
0	2962	284.554103876826	0
0	2991	288.423638518097	1
0	2992	288.479200416667	0
0	3026	293.745828844187	1
0	3027	293.809264184811	0
0	3036	294.509091383335	1
0	3037	294.565808716795	0
0	3051	296.450808840544	1
0	3052	296.523657590531	0
0	3056	296.588759512043	1
0	3057	296.731592355074	0
0	3061	296.858967279666	1
0	3062	296.939527119617	0
0	3071	297.582147837945	1
0	3072	297.691741253285	0
0	3081	298.597262135929	1
0	3082	298.674225909893	0
0	3086	298.746712793299	1
0	3087	298.882160674436	0
0	3101	300.083175460392	1
0	3102	300.275001934955	0
0	3106	300.304796638834	1
0	3107	300.482936699498	0
0	3116	301.43081475286	1
0	3119	301.768291997976	0
0	3145	304.906331568678	1
0	3146	304.972574264495	0
0	3180	308.365982458547	1
0	3181	308.421264403097	0
0	3215	313.413415506999	1
0	3217	313.492639540026	2
0	3218	313.521602423611	1
0	3221	313.729537188154	0
0	3225	313.891028388174	1
0	3226	313.937471952697	0
0	3230	314.033037727809	1
0	3231	314.14540671724	0
0	3255	317.905223785924	1
0	3257	317.921038233118	2
0	3258	317.923329632339	1
0	3262	317.944451580431	2
0	3263	318.131264396882	1
0	3267	318.271305736799	2
0	3268	318.339199161425	1
0	3270	318.339199161425	0
0	3293	320.43452216426	1
0	3294	320.545756387222	0
0	3303	321.492899975623	1
0	3304	321.509529814896	0
0	3313	321.996055306485	1
0	3314	322.162079419105	0
0	3323	322.741198321334	1
0	3325	322.813015942818	2
0	3326	322.903245996014	1
0	3330	323.058074475333	2
0	3331	323.111180760557	1
0	3333	323.111180760557	0
0	3336	323.268075059857	1
0	3338	323.300146572821	2
0	3339	323.3191155251	1
0	3343	323.522489369421	2
0	3344	323.527050289643	1
0	3347	323.734985054186	0
0	3356	326.256309476891	1
0	3357	326.277928990417	0
0	3361	326.361863166294	1
0	3362	326.48586375496	0
0	3371	326.887279018303	1
0	3372	327.000559240867	0
0	3376	327.055402004571	1
0	3380	327.401678659823	2
0	3381	327.413311121438	1
0	3382	327.413311121438	0
0	3385	327.446064437996	1
0	3386	327.621245885981	0
0	3410	330.232144735768	1
0	3412	330.275204349529	2
0	3413	330.290042530743	1
0	3416	330.497977295286	0
0	3420	330.565824276139	1
0	3421	330.705912059829	0
0	3450	334.3885577711	1
0	3452	334.551662505285	2
0	3453	334.588118644614	1
0	3456	334.796053409157	0
0	3460	334.860181472256	1
0	3462	334.906763997587	2
0	3463	335.0039881737	1
0	3466	335.211922938243	0
0	3473	336.603755012888	1
0	3474	336.717665276723	0
0	3478	336.764895777351	1
0	3479	336.925600041266	0
0	3483	336.9354078392	1
0	3485	337.03983647632	2
0	3486	337.133534805809	1
0	3489	337.341469570352	0
0	3511	338.802630036182	1
0	3512	338.977250349087	0
0	3531	341.554323487846	1
0	3532	341.655636481528	0
0	3556	345.36224552225	1
0	3557	345.450894163804	0
0	3561	345.645560345799	1
0	3562	345.658828928347	0
0	3566	345.731889961024	1
0	3568	345.851398028423	2
0	3570	345.863850897496	3
0	3571	345.86676369289	2
0	3574	346.074698457433	1
0	3577	346.282633221976	0
0	3594	348.918864078809	1
0	3595	349.033885308418	0
0	3604	349.901012614625	1
0	3605	350.024452168979	0
0	3609	350.100749823846	1
0	3610	350.232386933522	0
0	3624	350.950049930013	1
0	3626	351.02516263624	2
0	3627	351.152170063131	1
0	3631	351.157510019995	2
0	3632	351.360104827674	1
0	3634	351.360104827674	0
0	3653	354.199536372317	1
0	3654	354.407329294825	0
0	3663	355.912556428546	1
0	3664	355.919613009016	0
0	3693	359.74577644358	1
0	3694	359.754941447444	0
0	3703	360.706394715293	1
0	3704	360.767995975482	0
0	3708	360.943724054453	1
0	3709	360.975930740025	0
0	3723	362.616187848561	1
0	3724	362.719690639496	0
0	3733	363.069393993126	1
0	3734	363.164361925196	0
0	3738	363.18232609721	1
0	3740	363.34873581601	2
0	3741	363.372296689739	1
0	3744	363.580231454282	0
0	3753	364.940120961394	1
0	3754	365.077934236848	0
0	3768	367.16593406291	1
0	3769	367.217080561183	0
0	3778	368.508949204253	1
0	3779	368.612604470216	0
0	3803	372.837732883542	1
0	3805	372.854657424888	2
0	3806	372.97214553988	1
0	3810	373.110289344958	2
0	3811	373.180080304423	1
0	3813	373.180080304423	0
0	3831	375.587483986457	1
0	3832	375.613755852068	0
0	3856	377.556741841751	1
0	3858	377.647286709648	2
0	3860	377.692974427219	3
0	3861	377.728697118757	2
0	3865	377.776004422881	3
0	3866	377.9366318833	2
0	3868	377.9366318833	1
0	3870	378.144566647843	0
0	3877	378.962164315152	1
0	3878	379.078138316951	0
0	3892	380.370757764941	1
0	3893	380.420115850508	0
0	3938	384.733689497985	1
0	3940	384.844224989933	2
0	3941	384.863082964651	1
0	3944	385.071017729194	0
0	3963	387.023390820822	1
0	3964	387.183539436091	0
0	3968	387.389215458955	1
0	3969	387.391474200634	0
0	4008	393.273048621778	1
0	4010	393.279370783283	2
0	4011	393.428185878644	1
0	4014	393.636120643187	0
0	4031	395.60449068259	1
0	4032	395.643999702764	0
0	4036	395.671958510397	1
0	4037	395.851934467307	0
0	4046	397.303523838731	1
0	4047	397.315425502795	0
0	4056	398.162027519245	1
0	4057	398.214511406823	0
0	4061	398.355269664692	1
0	4062	398.422446171366	0
0	4066	398.466872207217	1
0	4067	398.630380935909	0
0	4071	398.699830321645	1
0	4072	398.838315700452	0
0	4081	399.311481206094	1
0	4082	399.315141551725	0
0	4091	399.589256355484	1
0	4092	399.733335234367	0
0	4096	399.863968956832	1
0	4097	399.94126999891	0
0	4126	402.358073959095	1
0	4127	402.401482506687	0
0	4182	411.544306667387	1
0	4183	411.645805843519	0
0	4192	412.1928483717	1
0	4193	412.281949341674	0
0	4197	412.28292888035	1
0	4199	412.362852282164	2
0	4200	412.489884106217	1
0	4204	412.638080819635	2
0	4205	412.69781887076	1
0	4207	412.69781887076	0
0	4210	412.715039154246	1
0	4211	412.905753635303	0
0	4250	418.384468508016	1
0	4251	418.56251489121	0
0	4275	420.385431244564	1
0	4276	420.533295616855	0
0	4285	421.549406916688	1
0	4286	421.609380411015	0
0	4290	421.668280681196	1
0	4291	421.817315175558	0
0	4340	429.874395088015	1
0	4341	429.966872254635	0
0	4345	430.058526422783	1
0	4346	430.174807019178	0
0	4360	431.354765668395	1
0	4361	431.43130997788	0
0	4365	431.473684687691	1
0	4366	431.639244742423	0
0	4375	432.273305214753	1
0	4376	432.286752261811	0
0	4385	433.345341871273	1
0	4386	433.392583646162	0
0	4431	440.757708033538	1
0	4433	440.792890506292	2
0	4434	440.906975215433	1
0	4437	441.114909979976	0
0	4444	442.581389038182	1
0	4445	442.587697975422	0
0	4469	446.087822283414	1
0	4470	446.242872070634	0
0	4474	446.346383206859	1
0	4475	446.450806835177	0
0	4484	447.499807520512	1
0	4485	447.596265972664	0
0	4494	449.604230299279	1
0	4496	449.713964509343	2
0	4497	449.758916506067	1
0	4500	449.96685127061	0
0	4509	450.423794819856	1
0	4510	450.449250400891	0
0	4529	451.814729797917	1
0	4530	451.969302645707	0
0	4539	452.56532036454	1
0	4540	452.734699933085	0
0	4549	454.481347568881	1
0	4550	454.641714990541	0
0	4554	454.647725964172	1
0	4555	454.849649755084	0
0	4559	455.032183961756	1
0	4560	455.057584519627	0
0	4584	457.179165079699	1
0	4585	457.379020108705	0
0	4589	457.469487223289	1
0	4590	457.586954873248	0
0	4594	457.620700788666	1
0	4595	457.794889637791	0
0	4599	457.979150708034	1
0	4600	458.002824402334	0
0	4604	458.065714413545	1
0	4606	458.179151711068	2
0	4607	458.210759166877	1
0	4610	458.41869393142	0
0	4629	461.999957684306	1
0	4630	462.128834841541	0
0	4639	462.482710612536	1
0	4641	462.591615333142	2
0	4643	462.660020763333	3
0	4644	462.665775338154	2
0	4647	462.873710102697	1
0	4650	463.08164486724	0
0	4657	463.353910958594	1
0	4658	463.427407563494	0
0	4678	466.154029014611	1
0	4679	466.223884746017	0
0	4728	470.256087670667	1
0	4729	470.404019438733	0
0	4758	475.073129321428	1
0	4760	475.129217087242	2
0	4761	475.264804719259	1
0	4765	475.296176336983	2
0	4766	475.472739483802	1
0	4768	475.472739483802	0
0	4786	478.856228511417	1
0	4787	478.946775569207	0
0	4801	480.567078858175	1
0	4802	480.586553154902	0
0	4826	484.018548595738	1
0	4828	484.114018722612	2
0	4829	484.124988264098	1
0	4832	484.332923028641	0
0	4841	484.594414167743	1
0	4842	484.795340862075	0
0	4851	485.123759264174	1
0	4852	485.237248388114	0
0	4856	485.429070193834	1
0	4857	485.445183152657	0
0	4871	487.682768536222	1
0	4872	487.687791181672	0
0	4881	488.080819347747	1
0	4883	488.091725068052	2
0	4884	488.145209172391	1
0	4887	488.353143936934	0
0	4891	488.398271918757	1
0	4892	488.561078701477	0
0	4906	489.887419689014	1
0	4907	489.97599972765	0
0	4916	490.458855924804	1
0	4917	490.629964353485	0
0	4942	493.294576201512	1
0	4943	493.44731159057	0
0	4962	495.990485662858	1
0	4963	496.121870491925	0
0	4967	496.301833872105	1
0	4968	496.329805256468	0
0	4977	496.784395464044	1
0	4978	496.875161245129	0
0	4997	500.564988181573	1
0	4998	500.654657215301	0
0	5007	501.209218609865	1
0	5008	501.254972344833	0
0	5012	501.327254608159	1
0	5014	501.436578449975	2
0	5015	501.462907109376	1
0	5019	501.65359244364	2
0	5020	501.670841873919	1
0	5023	501.878776638462	0
0	5037	502.961283733571	1
0	5038	503.113055557152	0
0	5042	503.287585127671	1
0	5044	503.300885408372	2
0	5045	503.320990321695	1
0	5048	503.528925086238	0
0	5102	507.927368981848	1
0	5103	507.960915136092	0
0	5112	508.940677830682	1
0	5113	508.961741188142	0
0	5122	509.346004529261	1
0	5123	509.510323712621	0
0	5167	515.456378167384	1
0	5168	515.482820835504	0
0	5183	516.9614655282	1
0	5185	517.007470973185	2
0	5186	517.154652121328	1
0	5189	517.362586885871	0
0	5211	522.054233743613	1
0	5212	522.252834498683	0
0	5241	527.097430822106	1
0	5242	527.127921306722	0
0	5286	533.033228317385	1
0	5287	533.144415609915	0
0	5301	535.06619736639	1
0	5302	535.127134860559	0
0	5316	536.127040856548	1
0	5317	536.313362108105	0
0	5326	536.730836802454	1
0	5327	536.865699142036	0
0	5331	537.057212800529	1
0	5332	537.073633906579	0
0	5336	537.188773119375	1
0	5337	537.281568671122	0
0	5346	537.914468696291	1
0	5348	538.069370303283	2
0	5349	538.096959021673	1
0	5352	538.304893786216	0
0	5386	542.88502675543	1
0	5387	543.081784557958	0
0	5401	544.444554386342	1
0	5402	544.601524437316	0
0	5406	544.775040799456	1
0	5407	544.809459201859	0
0	5426	546.030216156785	1
0	5429	546.347199977717	0
0	5440	547.325412616785	1
0	5441	547.442143779863	0
0	5460	549.953534376293	1
0	5462	550.09286561876	2
0	5464	550.106122997224	3
0	5465	550.133576330832	2
0	5469	550.250272430926	3
0	5470	550.341511095375	2
0	5474	550.415181824792	3
0	5475	550.549445859918	2
0	5477	550.549445859918	1
0	5478	550.549445859918	0
0	5521	556.17391241777	1
0	5522	556.194647721182	0
0	5531	557.789439182489	1
0	5532	557.946022394812	0
0	5536	558.092725203527	1
0	5537	558.153957159355	0
0	5546	559.238669047468	1
0	5547	559.299778990855	0
0	5551	559.433890751423	1
0	5552	559.507713755398	0
0	5571	560.761554708316	1
0	5572	560.958882153455	0
0	5576	561.165591006598	1
0	5577	561.166816917998	0
0	5581	561.267515715041	1
0	5582	561.374751682541	0
0	5596	563.529084422224	1
0	5597	563.708019299017	0
0	5601	563.836439262932	1
0	5602	563.91595406356	0
0	5606	564.046883491013	1
0	5607	564.123888828103	0
0	5611	564.314693241186	1
0	5612	564.331823592646	0
0	5621	565.062460353925	1
0	5622	565.165987890545	0
0	5626	565.237764170316	1
0	5627	565.373922655088	0
0	5651	567.395472531333	1
0	5653	567.494097442898	2
0	5654	567.532125165367	1
0	5657	567.74005992991	0
0	5666	568.128409094021	1
0	5667	568.302888230813	0
0	5692	571.999175268953	1
0	5693	572.04603725777	0
0	5717	575.167978455067	1
0	5719	575.232333932723	2
0	5721	575.324941959452	3
0	5723	575.346711891793	4
0	5724	575.354636960565	3
0	5727	575.562571725108	2
0	5729	575.562571725108	1
0	5731	575.770506489651	0
0	5758	577.596747133345	1
0	5759	577.646695380613	0
0	5768	578.470940126207	1
0	5769	578.659643228062	0
0	5783	579.440729648522	1
0	5785	579.454043880006	2
0	5786	579.458079023777	1
0	5789	579.66601378832	0
0	5818	582.778624409977	1
0	5819	582.861909870339	0
0	5838	584.900907094558	1
0	5839	584.969240088589	0
0	5843	584.981356213995	1
0	5844	585.177174853132	0
0	5848	585.353735711325	1
0	5849	585.385109617675	0
0	5853	585.467059814576	1
0	5855	585.49999336184	2
0	5856	585.593044382218	1
0	5859	585.800979146761	0
0	5896	590.543252313733	1
0	5897	590.613992452148	0
0	5901	590.724638737711	1
0	5902	590.821927216691	0
0	5906	591.007326102925	1
0	5907	591.029861981234	0
0	5921	592.554963160866	1
0	5922	592.6819614367	0
0	5946	595.052650571432	1
0	5948	595.112205544531	2
0	5951	595.462874981409	1
0	5952	595.462874981409	0
0	5958	595.595009877147	1
0	5960	595.692522053611	2
0	5961	595.715460105081	1
0	5965	595.72304760736	2
0	5967	595.817182604905	3
0	5968	595.923394869624	2
0	5972	596.09409420527	3
0	5973	596.131329634167	2
0	5975	596.131329634167	1
0	5976	596.131329634167	0
0	5979	596.186980952353	1
0	5980	596.33926439871	0
0	6004	598.580796379279	1
0	6005	598.60731604055	0
0	6009	598.768400844346	1
0	6010	598.815250805093	0
0	6049	604.428428773268	1
0	6050	604.554089595172	0
0	6054	604.624629731319	1
0	6056	604.752049251269	2
0	6057	604.762024359715	1
0	6060	604.969959124258	0
0	6069	606.60071484958	1
0	6070	606.698813694479	0
0	6084	608.147581822635	1
0	6085	608.32187795408	0
0	6089	608.435908755137	1
0	6091	608.522907543098	2
0	6092	608.529812718623	1
0	6095	608.737747483166	0
0	6109	609.857299012561	1
0	6110	609.870428993296	0
0	6114	609.958565318062	1
0	6115	610.078363757839	0
0	6124	610.754147309044	1
0	6125	610.888533017977	0
0	6129	611.068034125976	1
0	6130	611.09646778252	0
0	6134	611.109614567655	1
0	6135	611.304402547063	0
0	6149	612.910807164664	1
0	6150	613.023301255806	0
0	6159	613.377396942364	1
0	6161	613.499233126349	2
0	6162	613.535213264273	1
0	6166	613.585924163757	2
0	6168	613.588384848451	3
0	6169	613.743148028816	2
0	6173	613.758738438305	3
0	6174	613.951082793359	2
0	6176	613.951082793359	1
0	6177	613.951082793359	0
0	6190	615.151462946303	1
0	6192	615.163764349142	2
0	6193	615.251702848904	1
0	6196	615.459637613447	0
0	6203	616.464988618333	1
0	6205	616.571078394821	2
0	6206	616.613297700428	1
0	6209	616.821232464971	0
0	6224	618.449831607426	1
0	6225	618.500664524819	0
0	6239	619.846501033875	1
0	6241	619.986112066928	2
0	6242	619.991198224316	1
0	6245	620.199132988859	0
0	6249	620.395531847082	1
0	6250	620.407067753402	0
0	6284	623.517107352814	1
0	6286	623.602727122753	2
0	6287	623.703288941393	1
0	6290	623.911223705936	0
0	6337	631.613270210036	1
0	6338	631.63787893141	0
0	6342	631.647204782719	1
0	6343	631.845813695953	0
0	6347	631.946572187471	1
0	6349	631.951827446188	2
0	6350	632.053748460496	1
0	6354	632.142574606659	2
0	6355	632.261683225039	1
0	6357	632.261683225039	0
0	6365	632.538122916644	1
0	6366	632.709247196076	0
0	6370	632.74192793094	1
0	6371	632.917181960619	0
0	6395	634.595516162323	1
0	6396	634.702025075418	0
0	6415	637.01271120847	1
0	6416	637.117055893735	0
0	6420	637.128979476988	1
0	6421	637.324990658278	0
0	6425	637.348413681833	1
0	6426	637.532925422821	0
0	6477	644.201826819522	1
0	6478	644.397084718092	0
0	6486	644.827801862086	1
0	6487	644.871327278182	0
0	6491	644.905501546492	1
0	6492	645.079262042725	0
0	6496	645.236036464889	1
0	6497	645.287196807268	0
0	6506	646.451448075678	1
0	6507	646.578009948664	0
0	6521	651.054973800218	1
0	6522	651.257259812457	0
0	6546	654.093830945287	1
0	6547	654.139333863436	0
0	6556	654.593834910638	1
0	6557	654.688751120888	0
0	6576	655.941383066658	1
0	6577	656.126871185006	0
0	6596	657.619511631749	1
0	6597	657.727139831602	0
0	6601	657.804239977238	1
0	6602	657.935074596145	0
0	6616	660.946991528129	1
0	6617	660.982010059006	0
0	6626	662.811226467856	1
0	6627	662.858084429153	0
0	6636	663.081965924368	1
0	6637	663.274002235583	0
0	6646	663.585140490732	1
0	6647	663.789308372629	0
0	6671	665.13019083859	1
0	6672	665.15689856495	0
0	6691	666.559686599691	1
0	6692	666.645167498541	0
0	6726	672.472644710697	1
0	6730	672.719566912925	2
0	6731	672.740704935322	1
0	6734	672.793759177089	2
0	6735	672.948639699865	1
0	6738	673.156574464408	0
0	6745	674.774870772985	1
0	6747	674.801893031425	2
0	6748	674.848177503758	1
0	6751	675.056112268301	0
0	6795	681.232255582356	1
0	6796	681.402676195583	0
0	6800	681.433187201137	1
0	6801	681.610610960126	0
0	6830	685.018483349869	1
0	6831	685.019149103976	0
0	6840	685.722376241009	1
0	6841	685.81898565244	0
0	6845	685.909744730873	1
0	6846	686.026920416983	0
0	6850	686.140870479237	1
0	6851	686.234855181526	0
0	6880	689.596577202603	1
0	6881	689.696280500434	0
0	6895	691.71540717846	1
0	6896	691.806915893416	0
0	6900	691.950961715251	1
0	6901	692.014850657959	0
0	6905	692.207671138668	1
0	6906	692.222785422502	0
0	6920	692.759793141708	1
0	6921	692.930760643393	0
0	6935	694.052174971485	1
0	6937	694.118557849619	2
0	6938	694.156374241264	1
0	6942	694.293519893972	2
0	6943	694.364309005807	1
0	6947	694.412175720392	2
0	6948	694.57224377035	1
0	6951	694.780178534893	0
0	6968	697.214324811766	1
0	6970	697.31122529709	2
0	6971	697.380985120026	1
0	6974	697.588919884569	0
0	6978	697.62200830153	1
0	6979	697.796854649112	0
0	7004	702.592110232952	1
0	7005	702.77742898615	0
0	7044	707.738930799076	1
0	7045	707.815358894172	0
0	7069	711.127217398099	1
0	7070	711.195568249059	0
0	7074	711.297365468855	1
0	7076	711.382470209974	2
0	7077	711.403503013602	1
0	7081	711.410007875644	2
0	7082	711.611437778145	1
0	7086	711.679670494272	2
0	7087	711.819372542688	1
0	7089	711.819372542688	0
0	7092	711.974395299076	1
0	7093	712.027307307231	0
0	7107	712.728629518335	1
0	7108	712.852438133493	0
0	7142	718.336737860812	1
0	7143	718.470577143902	0
0	7152	719.993605691662	1
0	7153	720.100145347949	0
0	7157	720.125708218191	1
0	7158	720.308080112492	0
0	7162	720.334845018787	1
0	7163	720.516014877035	0
0	7172	722.664469601564	1
0	7174	722.688307072984	2
0	7175	722.814997450811	1
0	7178	723.022932215354	0
0	7185	723.563675567011	1
0	7186	723.693515304471	0
0	7190	723.716841043073	1
0	7191	723.901450069014	0
0	7195	723.915423340574	1
0	7196	724.109384833557	0
0	7200	724.226299233793	1
0	7201	724.3173195981	0
0	7205	724.500775474042	1
0	7206	724.525254362643	0
0	7225	726.068171237907	1
0	7226	726.080888174251	0
0	7230	726.121983921768	1
0	7231	726.288822938794	0
0	7251	728.357776957178	1
0	7252	728.459322797781	0
0	7276	730.558509914457	1
0	7277	730.616340646369	0
0	7291	733.029762584209	1
0	7293	733.071949091895	2
0	7294	733.164852619697	1
0	7298	733.197810384771	2
0	7299	733.37278738424	1
0	7301	733.37278738424	0
0	7304	733.37548066457	1
0	7305	733.580722148783	0
0	7314	734.528921741005	1
0	7315	734.629632772942	0
0	7349	740.507136317137	1
0	7351	740.561723421836	2
0	7352	740.665349445471	1
0	7355	740.873284210014	0
0	7362	741.360279424108	1
0	7363	741.43805150681	0
0	7377	742.173983443997	1
0	7378	742.288088129874	0
0	7382	742.351948961247	1
0	7383	742.496022894417	0
0	7392	743.339639814215	1
0	7393	743.532073486427	0
0	7402	744.168551704749	1
0	7403	744.200269290609	0
0	7407	744.388473616126	1
0	7409	744.402116128116	2
0	7410	744.408204055152	1
0	7414	744.535362126672	2
0	7415	744.616138819695	1
0	7418	744.824073584238	0
0	7435	745.755297207914	1
0	7436	745.891527444961	0
0	7440	746.011753207883	1
0	7441	746.099462209504	0
0	7450	748.466162952129	1
0	7452	748.55072303909	2
0	7453	748.564208036271	1
0	7456	748.772142800814	0
0	7475	750.260137310273	1
0	7476	750.441708769584	0
0	7480	750.570873086284	1
0	7481	750.649643534127	0
0	7500	753.247918142761	1
0	7503	753.456294598086	0
0	7506	753.600403049573	1
0	7507	753.664229362629	0
0	7516	755.418251369555	1
0	7517	755.556727149062	0
0	7531	756.330313608698	1
0	7532	756.521875286642	0
0	7541	757.08143413704	1
0	7542	757.211182814068	0
0	7581	764.743016570152	1
0	7582	764.879000652654	0
0	7586	764.962379583281	1
0	7587	765.086935417197	0
0	7606	768.522298613083	1
0	7607	768.545878026886	0
0	7621	769.912214411508	1
0	7622	769.919544650736	0
0	7661	773.792142141332	1
0	7663	773.804266500621	2
0	7664	773.935651926508	1
0	7668	774.001517618483	2
0	7670	774.09926948896	3
0	7671	774.143586691051	2
0	7673	774.143586691051	1
0	7675	774.351521455594	0
0	7704	777.603041795556	1
0	7705	777.802752589231	0
0	7714	778.921775331215	1
0	7715	779.121506567197	0
0	7744	783.655725009598	1
0	7745	783.794123557581	0
0	7756	784.681913473274	1
0	7757	784.859705507513	0
0	7805	790.227376762209	1
0	7806	790.302602990927	0
0	7810	790.311029263271	1
0	7812	790.497675228607	2
0	7813	790.51053775547	1
0	7817	790.617290784891	2
0	7818	790.718472520013	1
0	7821	790.926407284556	0
0	7843	792.784872840741	1
0	7844	792.798567767885	0
0	7878	795.416682795306	1
0	7880	795.545931865749	2
0	7882	795.600589390784	3
0	7883	795.603189790846	2
0	7886	795.811124555389	1
0	7889	796.019059319932	0
0	7901	797.398644041587	1
0	7902	797.430319367863	0
0	7906	797.532548143173	1
0	7907	797.638254132406	0
0	7911	797.725591216554	1
0	7912	797.846188896949	0
0	7941	801.053265406858	1
0	7942	801.13432514178	0
0	7946	801.204677639219	1
0	7948	801.215147331659	2
0	7949	801.342259906323	1
0	7953	801.425316117385	2
0	7955	801.457848467678	3
0	7956	801.550194670866	2
0	7958	801.550194670866	1
0	7960	801.758129435409	0
0	7972	802.77620827637	1
0	7973	802.826331590575	0
0	7982	803.564184919977	1
0	7983	803.752677287747	0
0	7987	803.757859398383	1
0	7988	803.96061205229	0
0	7992	803.99911381525	1
0	7993	804.168546816833	0
0	8028	808.10645286864	1
0	8029	808.174340437159	0
0	8063	814.392204978935	1
0	8065	814.424834320587	2
0	8066	814.477764454285	1
0	8069	814.685699218828	0
0	8088	817.806228766787	1
0	8090	817.884522677403	2
0	8091	817.897877351894	1
0	8094	818.105812116437	0
0	8113	819.931422159287	1
0	8114	820.046189322009	0
0	8118	820.144142232021	1
0	8119	820.254124086552	0
0	8123	820.254140657904	1
0	8124	820.462058851095	0
0	8138	822.030727954188	1
0	8139	822.115929978185	0
0	8143	822.196321745022	1
0	8145	822.304949657955	2
0	8146	822.323864742728	1
0	8150	822.488877799485	2
0	8151	822.531799507271	1
0	8155	822.606651424554	2
0	8156	822.739734271814	1
0	8159	822.947669036357	0
0	8181	825.027360720609	1
0	8182	825.093540450418	0
0	8201	826.723809881701	1
0	8202	826.901392300687	0
0	8211	828.440326221422	1
0	8212	828.447490801829	0
0	8216	828.550349779342	1
0	8217	828.655425566372	0
0	8251	834.666490879479	1
0	8252	834.867233017501	0
0	8256	834.940981239421	1
0	8258	834.996665309195	2
0	8259	835.075167782044	1
0	8262	835.283102546587	0
0	8273	836.644707319694	1
0	8274	836.721346954954	0
0	8292	841.373669150911	1
0	8293	841.407760345264	0
0	8302	843.168419564143	1
0	8303	843.354957324687	0
0	8307	843.56214458484	1
0	8308	843.56289208923	0
0	8327	844.811357103768	1
0	8329	844.832716537421	2
0	8330	844.898643276839	1
0	8333	845.106578041382	0
0	8342	845.494834765035	1
0	8344	845.550512263038	2
0	8345	845.599858068738	1
0	8349	845.766905274781	2
0	8350	845.807792833281	1
0	8354	845.889765742329	2
0	8355	846.015727597824	1
0	8359	846.018333125554	2
0	8360	846.223662362367	1
0	8362	846.223662362367	0
0	8380	848.542309947881	1
0	8381	848.590139537178	0
0	8390	848.923239717231	1
0	8391	849.012735317648	0
0	8405	851.88315741243	1
0	8407	852.00643800108	2
0	8408	852.032118214948	1
0	8411	852.240052979491	0
0	8460	857.86793442662	1
0	8461	857.875489315991	0
0	8470	858.72412112653	1
0	8472	858.743155875867	2
0	8473	858.786003964194	1
0	8477	858.810150961112	2
0	8479	858.821553243128	3
0	8480	858.993938728737	2
0	8484	859.085329170486	3
0	8486	859.085718358054	4
0	8487	859.20187349328	3
0	8489	859.20187349328	2
0	8490	859.20187349328	1
0	8492	859.409808257823	0
0	8504	861.281755931687	1
0	8505	861.367517008814	0
0	8509	861.478948018002	1
0	8510	861.575451773357	0
0	8524	862.397393077319	1
0	8525	862.604131581095	0
0	8575	868.616627727439	1
0	8576	868.738523570332	0
0	8580	868.939783674446	1
0	8581	868.946458334875	0
0	8620	873.490551339931	1
0	8622	873.613767636437	2
0	8623	873.695621614138	1
0	8626	873.903556378681	0
0	8648	878.541274077944	1
0	8649	878.668300014046	0
0	8658	879.202209836136	1
0	8659	879.391658529686	0
0	8663	879.532937549401	1
0	8665	879.553823292729	2
0	8666	879.599593294229	1
0	8669	879.807528058772	0
0	8678	882.138129010022	1
0	8679	882.256381078346	0
0	8688	882.890502664688	1
0	8689	882.91056173075	0
0	8718	885.054188998304	1
0	8719	885.221000418657	0
0	8728	886.363277385927	1
0	8729	886.440763008647	0
0	8738	886.772518935938	1
0	8740	886.863408463112	2
0	8742	886.929968602779	3
0	8743	886.934811793607	2
0	8746	887.14274655815	1
0	8749	887.350681322693	0
0	8761	888.491988722162	1
0	8762	888.519022158688	0
0	8776	890.559098429417	1
0	8777	890.721567775352	0
0	8847	901.428088011743	1
0	8848	901.552130990119	0
0	8852	901.638800366175	1
0	8853	901.760065754662	0
0	8872	903.354808062411	1
0	8873	903.432246098762	0
0	8882	903.85536543298	1
0	8883	904.01421749923	0
0	8892	904.924088747827	1
0	8893	905.09158172735	0
0	8917	906.41437272666	1
0	8919	906.491023926951	2
0	8921	906.543583434039	3
0	8922	906.619634248336	2
0	8926	906.820132377627	3
0	8927	906.827569012879	2
0	8929	906.827569012879	1
0	8932	906.907752798859	2
0	8933	907.035503777422	1
0	8936	907.243438541965	0
0	8958	909.463202463117	1
0	8959	909.623784538015	0
0	8988	913.094101639284	1
0	8990	913.137535678393	2
0	8991	913.279423092823	1
0	8994	913.487357857366	0
0	9031	916.249999135348	1
0	9032	916.426910826703	0
0	9051	917.967018158175	1
0	9055	918.350189553978	2
0	9056	918.354538456968	1
0	9057	918.354538456968	0
0	9075	921.096790693451	1
0	9076	921.286030474119	0
0	9080	921.437596358125	1
0	9081	921.493965238662	0
0	9085	921.531385246187	1
0	9087	921.666112705287	2
0	9088	921.701900003205	1
0	9091	921.909834767748	0
0	9100	922.570964221493	1
0	9101	922.73037538809	0
0	9135	927.00635482581	1
0	9137	927.073364116716	2
0	9138	927.212964639604	1
0	9141	927.420899404147	0
0	9158	930.699581335845	1
0	9159	930.893515980497	0
0	9163	931.04942154848	1
0	9164	931.10145074504	0
0	9173	931.437868688232	1
0	9174	931.586992103184	0
0	9203	934.312761411621	1
0	9204	934.40670030685	0
0	9218	935.176196193276	1
0	9219	935.210349335838	0
0	9228	935.747948548605	1
0	9229	935.853983098585	0
0	9233	935.894606864685	1
0	9235	936.016102144518	2
0	9236	936.061917863128	1
0	9240	936.179965247658	2
0	9241	936.269852627671	1
0	9245	936.324285224018	2
0	9246	936.477787392214	1
0	9248	936.477787392214	0
0	9291	940.997731725816	1
0	9292	941.12019360806	0
0	9306	941.948292344719	1
0	9307	942.09486694711	0
0	9311	942.190949557935	1
0	9314	942.507618827681	0
0	9335	944.499429222223	1
0	9336	944.540659180365	0
0	9365	947.940399512886	1
0	9367	947.953827105315	2
0	9368	948.072805436595	1
0	9371	948.280740201138	0
0	9393	950.900463675182	1
0	9395	950.947993480049	2
0	9396	951.089833844619	1
0	9399	951.297768609162	0
0	9406	951.532093407713	1
0	9407	951.534856211661	0
0	9426	954.32381596326	1
0	9427	954.510005332567	0
0	9436	955.120698204714	1
0	9437	955.223050942821	0
0	9466	959.412423828517	1
0	9467	959.417824730488	0
0	9486	963.245118031707	1
0	9488	963.262496357819	2
0	9489	963.329708505369	1
0	9492	963.537643269912	0
0	9521	968.739947840418	1
0	9522	968.881534216961	0
0	9536	971.719349070188	1
0	9538	971.741498913	2
0	9539	971.828822554546	1
0	9542	972.036757319089	0
0	9580	977.287324698602	1
0	9581	977.426324666454	0
0	9605	978.919008610138	1
0	9606	978.95908222376	0
0	9625	981.774587830935	1
0	9627	981.86918620688	2
0	9628	981.966732847596	1
0	9631	982.174667612139	0
0	9638	983.740011516843	1
0	9640	983.832568868384	2
0	9641	983.893726158374	1
0	9644	984.101660922917	0
0	9648	984.273573797516	1
0	9649	984.30959568746	0
0	9688	992.413536530842	1
0	9689	992.482597626201	0
0	9698	993.620591242574	1
0	9699	993.749670376041	0
0	9713	996.426821364527	1
0	9714	996.560897554421	0
0	9723	997.718099607411	1
0	9724	997.895794315535	0
0	9728	997.936378341794	1
0	9729	998.103729080078	0
0	9738	999.307322516005	1
0	9739	999.397736230283	0
0	9743	999.418725509467	1
0	9744	999.605670994826	0
0	9748	999.649777670463	1
0	9749	999.813605759369	0
1	6	1.653590311822	0.100845938204
1	21	2.902648065602	0.022640356705
1	43	5.124800218364	0.173292118559
1	46	5.332734982907	0.326633214585
1	64	6.884972566433	0.042306480164
1	69	7.092907330976	0.18123237847
1	79	7.819653415096	0.02540569687
1	109	10.433984193761	0.205285767556
1	134	14.305435717694	0.098356329274
1	139	14.513370482237	0.045384039406
1	149	15.129030937696	0.157768349123
1	186	20.178386494068	0.18164042035
1	191	20.386321258611	0.25293202725
1	194	20.594256023154	0.388462574183
1	204	21.394057191847	0.14570358023
1	209	21.60199195639	0.240699334456
1	212	21.809926720933	0.221785638834
1	242	25.70278206171	0.005467697428
1	259	26.899498630185	0.024630488891
1	263	27.107433394728	0.133987265087
1	293	30.386621758157	0.097074649307
1	323	32.314300786794	0.187474666448
1	328	32.522235551337	0.047447799809
1	350	34.276419661066	0.033097222417
1	355	34.484354425609	0.231370739869
1	358	34.692289190152	0.383672377853
1	383	37.817239793061	0.206129564912
1	388	38.025174557604	0.319639175945
1	390	38.025174557604	0.006676710351
1	394	38.233109322147	0.193283140144
1	399	38.44104408669	0.195840182507
1	471	48.763900036386	0.188189287336
1	474	48.971834800929	0.291851454534
1	482	49.45716872147	0.163049710876
1	487	49.665103486013	0.099499752089
1	502	51.339721923022	0.040318840709
1	533	56.8984818141	0.058605706045
1	543	58.899417533963	0.02811037618
1	558	59.880959634954	0.006686505725
1	563	60.088894399497	0.009666806484
1	603	63.52906085205	0.101254093343
1	613	64.629852655347	0.197113105972
1	618	64.83778741989	0.200287874255
1	648	67.686223600923	0.093440369609
1	655	67.894158365466	0.168765261368
1	660	68.102093130009	0.356479423711
1	662	68.102093130009	0.005203687617
1	691	72.641330575762	0.113369422435
1	721	75.933457307024	0.057805494001
1	726	76.141392071567	0.003409374973
1	743	78.404383751441	0.111007772053
1	746	78.612318515984	0.281919965747
1	751	78.820253280527	0.101327770014
1	773	80.242510300136	0.005723516414
1	782	81.204769576178	0.115506201084
1	792	81.629259254793	0.054143640445
1	797	81.837194019336	0.066594039027
1	804	82.045128783879	0.090567545769
1	807	82.253063548422	0.224571591764
1	842	86.515582242848	0.171931979615
1	851	86.723517007391	0.182245039928
1	858	86.931451771934	0.310904001858
1	860	86.931451771934	0.255072323082
1	862	87.139386536477	0.405916308586
1	864	87.139386536477	0.281655884851
1	868	87.34732130102	0.155193330561
1	880	87.946398580294	0.128857646565
1	887	88.154333344837	0.229462489865
1	890	88.36226810938	0.374651643911
1	892	88.36226810938	0.30969996982
1	909	89.923379316085	0.02791944314
1	914	90.131314080628	0.016746694823
1	924	90.554559614709	0.134386476036
1	991	97.83094324281	0.067420141966
1	994	98.038878007353	0.245344932576
1	1014	99.568243981429	0.005822538166
1	1019	99.776178745972	0.062647561942
1	1045	102.267232608601	0.017590750093
1	1070	105.11545441913	0.113000059633
1	1085	106.157525949347	0.161865430048
1	1090	106.36546071389	0.01572633895
1	1095	106.573395478433	0.137710088729
1	1110	107.774193898462	0.160190997313
1	1117	107.982128663005	0.112048618911
1	1120	108.190063427548	0.317923906332
1	1138	110.397777474065	0.167086017784
1	1155	111.563978736905	0.022812959022
1	1160	111.771913501448	0.218183187124
1	1163	111.979848265991	0.291790721296
1	1171	112.727418054444	0.031226025328
1	1176	112.935352818987	0.150301391885
1	1261	123.932936976803	0.198409860778
1	1273	124.794585625859	0.172559765195
1	1278	125.002520390402	0.32321164083
1	1280	125.002520390402	0.1888385577
1	1296	127.074038673937	0.278256419521
1	1302	127.28197343848	0.118037331751
1	1305	127.489908203023	0.308823078239
1	1313	128.219644937811	0.185372736065
1	1320	128.427579702354	0.194569236167
1	1323	128.635514466897	0.309533921989
1	1333	129.833107117486	0.072384591489
1	1336	130.041041882029	0.240008453625
1	1356	132.491246861007	0.004569424866
1	1376	134.662568343361	0.130407595488
1	1386	136.31923734409	0.056543694324
1	1391	136.527172108633	0.173541656031
1	1421	139.758049739614	0.107240622877
1	1448	141.646535039536	0.181519788102
1	1451	141.854469804079	0.332939206349
1	1489	146.513644212218	0.12228102117
1	1499	147.035425097725	0.008717090404
1	1524	149.677503658197	0.203197799381
1	1544	151.514963333648	0.179009590799
1	1549	151.722898098191	0.052494179316
1	1560	152.135649978762	0.339250400778
1	1561	152.135649978762	0.143821374191
1	1565	152.343584743305	0.309228066388
1	1567	152.343584743305	0.166532190913
1	1571	152.551519507848	0.19256675674
1	1581	153.045373446374	0.207768711028
1	1611	158.508615167979	0.1007960342
1	1636	160.688617131594	0.183792258912
1	1671	163.513897575073	0.191344277274
1	1676	163.721832339616	0.198984447754
1	1691	164.918729562309	0.03057029324
1	1696	165.126664326852	0.018574559817
1	1728	169.007486390737	0.136021396603
1	1733	169.21542115528	0.296204317666
1	1735	169.21542115528	0.195210345271
1	1741	169.423355919823	0.153399382113
1	1744	169.631290684366	0.261932656343
1	1754	170.095419037197	0.0671890585
1	1779	172.065458584153	0.07229387002
1	1784	172.273393348696	0.058425015113
1	1804	173.438086748198	0.040948122858
1	1809	173.646021512741	0.147153079511
1	1816	174.058773393312	0.300592440934
1	1833	176.64121952597	0.205151667897
1	1858	179.412618421823	0.059306679194
1	1873	180.201597935581	0.194678820238
1	1903	185.698191074913	0.135827107938
1	1913	186.367803747906	0.161178696377
1	1942	189.315973007465	0.151419541555
1	1945	189.523907772008	0.347282847796
1	1947	189.523907772008	0.341057987194
1	1961	191.457167456186	0.152014010237
1	1966	191.665102220729	0.305985040644
1	1968	191.665102220729	0.136581278455
1	1977	192.441703820496	0.189082524021
1	1997	193.908805895255	0.023874833972
1	2047	198.351580901252	0.068670697836
1	2062	200.104078276277	0.152019423436
1	2067	200.31201304082	0.046906015991
1	2079	200.993950814869	0.342869408555
1	2141	208.623596781275	0.174796404149
1	2146	208.831531545818	0.146619757337
1	2171	211.308560053279	0.19409138904
1	2181	211.812670046267	0.06751437999
1	2186	212.02060481081	0.12120632768
1	2193	212.228539575353	0.133153057918
1	2196	212.436474339896	0.267642335246
1	2213	213.812087106711	0.162068558564
1	2218	214.020021871254	0.292330811136
1	2220	214.020021871254	0.133577740292
1	2224	214.227956635797	0.199152310531
1	2239	217.280943550463	0.065810125659
1	2244	217.488878315006	0.103868170555
1	2259	218.428169644582	0.180318793882
1	2279	220.75016021309	0.113640273327
1	2289	221.205247540143	0.190562473465
1	2299	222.471860157883	0.13896830706
1	2304	222.679794922426	0.119494306916
1	2324	226.37077241799	0.100458248016
1	2331	226.578707182533	0.200163443933
1	2338	226.991459063104	0.576370049095
1	2339	226.991459063104	0.046507191116
1	2343	227.199393827647	0.006169421812
1	2367	232.075987323606	0.14799332093
1	2370	232.283922088149	0.312853268087
1	2372	232.283922088149	0.223673632941
1	2378	232.491856852692	0.11061795313
1	2381	232.699791617235	0.248844915654
1	2386	232.907726381778	0.02371383302
1	2396	233.87585253169	0.207855938172
1	2406	234.927123073926	0.020069438817
1	2416	236.217926925493	0.206480875736
1	2438	237.713277777265	0.085353103095
1	2443	237.921212541808	0.245624804771
1	2446	238.129147306351	0.269445347893
1	2456	239.114577670559	0.18186849235
1	2463	239.322512435102	0.147129546382
1	2466	239.530447199645	0.280671545246
1	2481	241.956555098145	0.004944126271
1	2488	242.164489862688	0.093256548902
1	2491	242.372424627231	0.284449010063
1	2511	243.572031076799	0.039816855603
1	2518	243.779965841342	0.057173080123
1	2521	243.987900605885	0.223912880143
1	2526	244.195835370428	0.032155803454
1	2531	244.403770134971	0.012850067671
1	2541	245.102658104134	0.104700275111
1	2546	245.310592868677	0.195053010356
1	2566	247.135583923991	0.203765854877
1	2571	247.343518688534	0.206685916248
1	2578	247.551453453077	0.13808607909
1	2587	247.75938821762	0.284667362763
1	2590	247.967322982163	0.378383971851
1	2592	247.967322982163	0.348927284111
1	2593	247.967322982163	0.268549722993
1	2599	248.380074862734	0.159689438104
1	2618	251.861316983945	0.104217212019
1	2630	252.965916469765	0.052509824129
1	2635	253.173851234308	0.22532897309
1	2638	253.381785998851	0.290273260396
1	2681	257.733609501736	0.181553101311
1	2696	258.612645898399	0.056444323607
1	2728	262.139922140214	0.155964149359
1	2733	262.347856904757	0.322675275567
1	2735	262.347856904757	0.179191462813
1	2764	266.704316958973	0.000431544159
1	2776	268.008615826805	0.068426700095
1	2779	268.216550591348	0.263731739492
1	2784	268.424485355891	0.111730174119
1	2794	269.424495954458	0.084031343645
1	2805	269.632430719001	0.121145432938
1	2808	269.840365483544	0.296919758556
1	2810	269.840365483544	0.260885128992
1	2816	270.048300248087	0.443837267092
1	2818	270.048300248087	0.157278330217
1	2820	270.25623501263	0.312593397507
1	2838	272.42939951486	0.194061064506
1	2853	274.247829954615	0.141940971834
1	2858	274.455764719158	0.118443186923
1	2867	274.868516599729	0.238934134438
1	2869	275.076451364272	0.424230447685
1	2884	275.925521816059	0.119611494217
1	2887	276.133456580602	0.210399266742
1	2892	276.341391345145	0.126947797069
1	2897	276.549326109688	0.132871521908
1	2907	277.725948708366	0.202730280985
1	2942	282.246388876652	0.043063966791
1	2947	282.454323641195	0.205572692023
1	2962	284.554103876826	0.155558755031
1	2992	288.479200416667	0.05556189857
1	3027	293.809264184811	0.063435340624
1	3037	294.565808716795	0.05671733346
1	3052	296.523657590531	0.072848749987
1	3057	296.731592355074	0.142832843031
1	3062	296.939527119617	0.080559839951
1	3072	297.691741253285	0.10959341534
1	3082	298.674225909893	0.076963773964
1	3087	298.882160674436	0.135447881137
1	3102	300.275001934955	0.191826474563
1	3107	300.482936699498	0.178140060664
1	3119	301.768291997976	0.337477245116
1	3146	304.972574264495	0.066242695817
1	3181	308.421264403097	0.05528194455
1	3218	313.521602423611	0.108186916612
1	3221	313.729537188154	0.236897648128
1	3226	313.937471952697	0.046443564523
1	3231	314.14540671724	0.112368989431
1	3258	317.923329632339	0.018105846415
1	3263	318.131264396882	0.210226163764
1	3268	318.339199161425	0.394747580994
1	3270	318.339199161425	0.067893424626
1	3294	320.545756387222	0.111234222962
1	3304	321.509529814896	0.016629839273
1	3314	322.162079419105	0.16602411262
1	3326	322.903245996014	0.16204767468
1	3331	323.111180760557	0.298164817739
1	3333	323.111180760557	0.053106285224
1	3339	323.3191155251	0.051040465243
1	3344	323.527050289643	0.226903716822
1	3347	323.734985054186	0.212495684765
1	3357	326.277928990417	0.021619513526
1	3362	326.48586375496	0.124000588666
1	3372	327.000559240867	0.113280222564
1	3381	327.413311121438	0.357909116867
1	3382	327.413311121438	0.011632461615
1	3386	327.621245885981	0.175181447985
1	3413	330.290042530743	0.057897794975
1	3416	330.497977295286	0.222772945757
1	3421	330.705912059829	0.14008778369
1	3453	334.588118644614	0.199560873514
1	3456	334.796053409157	0.244390903872
1	3463	335.0039881737	0.143806701444
1	3466	335.211922938243	0.305158940656
1	3474	336.717665276723	0.113910263835
1	3479	336.925600041266	0.160704263915
1	3486	337.133534805809	0.198126966609
1	3489	337.341469570352	0.301633094032
1	3512	338.977250349087	0.174620312905
1	3532	341.655636481528	0.101312993682
1	3557	345.450894163804	0.088648641554
1	3562	345.658828928347	0.013268582548
1	3571	345.86676369289	0.134873731866
1	3574	346.074698457433	0.22330042901
1	3577	346.282633221976	0.41878232448
1	3595	349.033885308418	0.115021229609
1	3605	350.024452168979	0.123439554354
1	3610	350.232386933522	0.131637109676
1	3627	351.152170063131	0.202120133118
1	3632	351.360104827674	0.334942191434
1	3634	351.360104827674	0.202594807679
1	3654	354.407329294825	0.207792922508
1	3664	355.919613009016	0.00705658047
1	3694	359.754941447444	0.009165003864
1	3704	360.767995975482	0.061601260189
1	3709	360.975930740025	0.032206685572
1	3724	362.719690639496	0.103502790935
1	3734	363.164361925196	0.09496793207
1	3741	363.372296689739	0.189970592529
1	3744	363.580231454282	0.231495638272
1	3754	365.077934236848	0.137813275454
1	3769	367.217080561183	0.051146498273
1	3779	368.612604470216	0.103655265963
1	3806	372.97214553988	0.134412656338
1	3811	373.180080304423	0.325422879535
1	3813	373.180080304423	0.069790959465
1	3832	375.613755852068	0.026271865611
1	3861	377.728697118757	0.171955277006
1	3866	377.9366318833	0.289345173652
1	3868	377.9366318833	0.243657456081
1	3870	378.144566647843	0.368562224962
1	3878	379.078138316951	0.115974001799
1	3893	380.420115850508	0.049358085567
1	3941	384.863082964651	0.129393466666
1	3944	385.071017729194	0.226792739261
1	3964	387.183539436091	0.160148615269
1	3969	387.391474200634	0.002258741679
1	4011	393.428185878644	0.155137256866
1	4014	393.636120643187	0.356749859904
1	4032	395.643999702764	0.039509020174
1	4037	395.851934467307	0.17997595691
1	4047	397.315425502795	0.011901664064
1	4057	398.214511406823	0.052483887578
1	4062	398.422446171366	0.067176506674
1	4067	398.630380935909	0.163508728692
1	4072	398.838315700452	0.138485378807
1	4082	399.315141551725	0.003660345631
1	4092	399.733335234367	0.144078878883
1	4097	399.94126999891	0.077301042078
1	4127	402.401482506687	0.043408547592
1	4183	411.645805843519	0.101499176132
1	4193	412.281949341674	0.089100969974
1	4200	412.489884106217	0.206955225867
1	4205	412.69781887076	0.334966588596
1	4207	412.69781887076	0.059738051125
1	4211	412.905753635303	0.190714481057
1	4251	418.56251489121	0.178046383194
1	4276	420.533295616855	0.147864372291
1	4286	421.609380411015	0.059973494327
1	4291	421.817315175558	0.149034494362
1	4341	429.966872254635	0.09247716662
1	4346	430.174807019178	0.116280596395
1	4361	431.43130997788	0.076544309485
1	4366	431.639244742423	0.165560054732
1	4376	432.286752261811	0.013447047058
1	4386	433.392583646162	0.047241774889
1	4434	440.906975215433	0.149267181895
1	4437	441.114909979976	0.322019473684
1	4445	442.587697975422	0.00630893724
1	4470	446.242872070634	0.15504978722
1	4475	446.450806835177	0.104423628318
1	4485	447.596265972664	0.096458452152
1	4497	449.758916506067	0.154686206788
1	4500	449.96685127061	0.252886761267
1	4510	450.449250400891	0.025455581035
1	4530	451.969302645707	0.15457284779
1	4540	452.734699933085	0.169379568545
1	4550	454.641714990541	0.16036742166
1	4555	454.849649755084	0.201923790912
1	4560	455.057584519627	0.025400557871
1	4585	457.379020108705	0.199855029006
1	4590	457.586954873248	0.117467649959
1	4595	457.794889637791	0.174188849125
1	4600	458.002824402334	0.0236736943
1	4607	458.210759166877	0.145044753332
1	4610	458.41869393142	0.239542220352
1	4630	462.128834841541	0.128877157235
1	4644	462.665775338154	0.183064725618
1	4647	462.873710102697	0.282094769555
1	4650	463.08164486724	0.421624103907
1	4658	463.427407563494	0.0734966049
1	4679	466.223884746017	0.069855731406
1	4729	470.404019438733	0.147931768066
1	4761	475.264804719259	0.191675397831
1	4766	475.472739483802	0.34352239656
1	4768	475.472739483802	0.176563146819
1	4787	478.946775569207	0.09054705779
1	4802	480.586553154902	0.019474296727
1	4829	484.124988264098	0.10643966836
1	4832	484.332923028641	0.218904306029
1	4842	484.795340862075	0.200926694332
1	4852	485.237248388114	0.11348912394
1	4857	485.445183152657	0.016112958823
1	4872	487.687791181672	0.00502264545
1	4884	488.145209172391	0.064389824644
1	4887	488.353143936934	0.261418868882
1	4892	488.561078701477	0.16280678272
1	4907	489.97599972765	0.088580038636
1	4917	490.629964353485	0.171108428681
1	4943	493.44731159057	0.152735389058
1	4963	496.121870491925	0.131384829067
1	4968	496.329805256468	0.027971384363
1	4978	496.875161245129	0.090765781085
1	4998	500.654657215301	0.089669033728
1	5008	501.254972344833	0.045753734968
1	5015	501.462907109376	0.135652501217
1	5020	501.670841873919	0.234263423944
1	5023	501.878776638462	0.225184194822
1	5038	503.113055557152	0.151771823581
1	5045	503.320990321695	0.033405194024
1	5048	503.528925086238	0.228039677866
1	5103	507.960915136092	0.033546154244
1	5113	508.961741188142	0.02106335746
1	5123	509.510323712621	0.16431918336
1	5168	515.482820835504	0.02644266812
1	5186	517.154652121328	0.193186593128
1	5189	517.362586885871	0.355115912686
1	5212	522.252834498683	0.19860075507
1	5242	527.127921306722	0.030490484616
1	5287	533.144415609915	0.11118729253
1	5302	535.127134860559	0.060937494169
1	5317	536.313362108105	0.186321251557
1	5327	536.865699142036	0.134862339582
1	5332	537.073633906579	0.01642110605
1	5337	537.281568671122	0.092795551747
1	5349	538.096959021673	0.182490325382
1	5352	538.304893786216	0.235523482933
1	5387	543.081784557958	0.196757802528
1	5402	544.601524437316	0.156970050974
1	5407	544.809459201859	0.034418402403
1	5429	546.347199977717	0.316983820932
1	5441	547.442143779863	0.116731163078
1	5465	550.133576330832	0.180041954539
1	5470	550.341511095375	0.248645476615
1	5475	550.549445859918	0.443322862694
1	5477	550.549445859918	0.299173428992
1	5478	550.549445859918	0.134264035126
1	5522	556.194647721182	0.020735303412
1	5532	557.946022394812	0.156583212323
1	5537	558.153957159355	0.061231955828
1	5547	559.299778990855	0.061109943387
1	5552	559.507713755398	0.073823003975
1	5572	560.958882153455	0.197327445139
1	5577	561.166816917998	0.0012259114
1	5582	561.374751682541	0.1072359675
1	5597	563.708019299017	0.178934876793
1	5602	563.91595406356	0.079514800628
1	5607	564.123888828103	0.07700533709
1	5612	564.331823592646	0.01713035146
1	5622	565.165987890545	0.10352753662
1	5627	565.373922655088	0.136158484772
1	5654	567.532125165367	0.136652634034
1	5657	567.74005992991	0.245962487012
1	5667	568.302888230813	0.174479136792
1	5693	572.04603725777	0.046861988817
1	5724	575.354636960565	0.186658505498
1	5727	575.562571725108	0.330237792385
1	5729	575.562571725108	0.237629765656
1	5731	575.770506489651	0.423794597858
1	5759	577.646695380613	0.049948247268
1	5769	578.659643228062	0.188703101855
1	5786	579.458079023777	0.017349375255
1	5789	579.66601378832	0.211969908314
1	5819	582.861909870339	0.083285460362
1	5839	584.969240088589	0.068332994031
1	5844	585.177174853132	0.195818639137
1	5849	585.385109617675	0.03137390635
1	5856	585.593044382218	0.125984567642
1	5859	585.800979146761	0.300985784921
1	5897	590.613992452148	0.070740138415
1	5902	590.821927216691	0.09728847898
1	5907	591.029861981234	0.022535878309
1	5922	592.6819614367	0.126998275834
1	5951	595.462874981409	0.410224409977
1	5952	595.462874981409	0.350669436878
1	5961	595.715460105081	0.120450227934
1	5968	595.923394869624	0.230872816013
1	5973	596.131329634167	0.408282026807
1	5975	596.131329634167	0.314147029262
1	5976	596.131329634167	0.037235428897
1	5980	596.33926439871	0.152283446357
1	6005	598.60731604055	0.026519661271
1	6010	598.815250805093	0.046849960747
1	6050	604.554089595172	0.125660821904
1	6057	604.762024359715	0.137394628396
1	6060	604.969959124258	0.217909872989
1	6070	606.698813694479	0.098098844899
1	6085	608.32187795408	0.174296131445
1	6092	608.529812718623	0.093903963486
1	6095	608.737747483166	0.214839940068
1	6110	609.870428993296	0.013129980735
1	6115	610.078363757839	0.119798439777
1	6125	610.888533017977	0.134385708933
1	6130	611.09646778252	0.028433656544
1	6135	611.304402547063	0.194787979408
1	6150	613.023301255806	0.112494091142
1	6162	613.535213264273	0.157816321909
1	6169	613.743148028816	0.243914902467
1	6174	613.951082793359	0.365158629602
1	6176	613.951082793359	0.362697944908
1	6177	613.951082793359	0.192344355054
1	6193	615.251702848904	0.100239902601
1	6196	615.459637613447	0.295873264305
1	6206	616.613297700428	0.148309082095
1	6209	616.821232464971	0.25015407015
1	6225	618.500664524819	0.050832917393
1	6242	619.991198224316	0.144697190441
1	6245	620.199132988859	0.213020921931
1	6250	620.407067753402	0.01153590632
1	6287	623.703288941393	0.186181588579
1	6290	623.911223705936	0.308496583183
1	6338	631.63787893141	0.024608721374
1	6343	631.845813695953	0.198608913234
1	6350	632.053748460496	0.107176273025
1	6355	632.261683225039	0.309855778851
1	6357	632.261683225039	0.11910861838
1	6366	632.709247196076	0.171124279432
1	6371	632.917181960619	0.175254029679
1	6396	634.702025075418	0.106508913095
1	6416	637.117055893735	0.104344685265
1	6421	637.324990658278	0.19601118129
1	6426	637.532925422821	0.184511740988
1	6478	644.397084718092	0.19525789857
1	6487	644.871327278182	0.043525416096
1	6492	645.079262042725	0.173760496233
1	6497	645.287196807268	0.051160342379
1	6507	646.578009948664	0.126561872986
1	6522	651.257259812457	0.202286012239
1	6547	654.139333863436	0.045502918149
1	6557	654.688751120888	0.09491621025
1	6577	656.126871185006	0.185488118348
1	6597	657.727139831602	0.107628199853
1	6602	657.935074596145	0.130834618907
1	6617	660.982010059006	0.035018530877
1	6627	662.858084429153	0.046857961297
1	6637	663.274002235583	0.192036311215
1	6647	663.789308372629	0.204167881897
1	6672	665.15689856495	0.02670772636
1	6692	666.645167498541	0.08548089885
1	6731	672.740704935322	0.268060224625
1	6735	672.948639699865	0.22907278694
1	6738	673.156574464408	0.362815287319
1	6748	674.848177503758	0.073306730773
1	6751	675.056112268301	0.254219236876
1	6796	681.402676195583	0.170420613227
1	6801	681.610610960126	0.177423758989
1	6831	685.019149103976	0.000665754107
1	6841	685.81898565244	0.096609411431
1	6846	686.026920416983	0.11717568611
1	6851	686.234855181526	0.093984702289
1	6881	689.696280500434	0.099703297831
1	6896	691.806915893416	0.091508714956
1	6901	692.014850657959	0.063888942708
1	6906	692.222785422502	0.015114283834
1	6921	692.930760643393	0.170967501685
1	6938	694.156374241264	0.104199269779
1	6943	694.364309005807	0.245751156188
1	6948	694.57224377035	0.278723876378
1	6951	694.780178534893	0.368002814501
1	6971	697.380985120026	0.16666030826
1	6974	697.588919884569	0.277694587479
1	6979	697.796854649112	0.174846347582
1	7005	702.77742898615	0.185318753198
1	7045	707.815358894172	0.076428095096
1	7070	711.195568249059	0.06835085096
1	7077	711.403503013602	0.106137544747
1	7082	711.611437778145	0.228967568171
1	7087	711.819372542688	0.409364667044
1	7089	711.819372542688	0.139702048416
1	7093	712.027307307231	0.052912008155
1	7108	712.852438133493	0.123808615158
1	7143	718.470577143902	0.13383928309
1	7153	720.100145347949	0.106539656287
1	7158	720.308080112492	0.182371894301
1	7163	720.516014877035	0.181169858248
1	7175	722.814997450811	0.150527849247
1	7178	723.022932215354	0.33462514237
1	7186	723.693515304471	0.12983973746
1	7191	723.901450069014	0.184609025941
1	7196	724.109384833557	0.193961492983
1	7201	724.3173195981	0.091020364307
1	7206	724.525254362643	0.024478888601
1	7226	726.080888174251	0.012716936344
1	7231	726.288822938794	0.166839017026
1	7252	728.459322797781	0.101545840603
1	7277	730.616340646369	0.057830731912
1	7294	733.164852619697	0.135090035488
1	7299	733.37278738424	0.300838292345
1	7301	733.37278738424	0.174976999469
1	7305	733.580722148783	0.205241484213
1	7315	734.629632772942	0.100711031937
1	7352	740.665349445471	0.158213128334
1	7355	740.873284210014	0.311560788178
1	7363	741.43805150681	0.077772082702
1	7378	742.288088129874	0.114104685877
1	7383	742.496022894417	0.14407393317
1	7393	743.532073486427	0.192433672212
1	7403	744.200269290609	0.03171758586
1	7410	744.408204055152	0.019730439026
1	7415	744.616138819695	0.214022691579
1	7418	744.824073584238	0.288711457566
1	7436	745.891527444961	0.136230237047
1	7441	746.099462209504	0.087709001621
1	7453	748.564208036271	0.098045084142
1	7456	748.772142800814	0.221419761724
1	7476	750.441708769584	0.181571459311
1	7481	750.649643534127	0.078770447843
1	7503	753.456294598086	0.208376455325
1	7507	753.664229362629	0.063826313056
1	7517	755.556727149062	0.138475779507
1	7532	756.521875286642	0.191561677944
1	7542	757.211182814068	0.129748677028
1	7582	764.879000652654	0.135984082502
1	7587	765.086935417197	0.124555833916
1	7607	768.545878026886	0.023579413803
1	7622	769.919544650736	0.007330239228
1	7664	773.935651926508	0.143509785176
1	7671	774.143586691051	0.33932019043
1	7673	774.143586691051	0.142069072568
1	7675	774.351521455594	0.252251966634
1	7705	777.802752589231	0.199710793675
1	7715	779.121506567197	0.199731235982
1	7745	783.794123557581	0.138398547983
1	7757	784.859705507513	0.177792034239
1	7806	790.302602990927	0.075226228718
1	7813	790.51053775547	0.199508492199
1	7818	790.718472520013	0.220797291406
1	7821	790.926407284556	0.309116499665
1	7844	792.798567767885	0.013694927144
1	7883	795.603189790846	0.18650699554
1	7886	795.811124555389	0.26519268964
1	7889	796.019059319932	0.418469929148
1	7902	797.430319367863	0.031675326276
1	7907	797.638254132406	0.105705989233
1	7912	797.846188896949	0.120597680395
1	7942	801.13432514178	0.081059734922
1	7949	801.342259906323	0.137582267104
1	7956	801.550194670866	0.335047339207
1	7958	801.550194670866	0.124878553481
1	7960	801.758129435409	0.300280967731
1	7973	802.826331590575	0.050123314205
1	7983	803.752677287747	0.18849236777
1	7988	803.96061205229	0.202752653907
1	7993	804.168546816833	0.169433001583
1	8029	808.174340437159	0.067887568519
1	8066	814.477764454285	0.08555947535
1	8069	814.685699218828	0.260864898241
1	8091	817.897877351894	0.091648585107
1	8094	818.105812116437	0.221289439034
1	8114	820.046189322009	0.114767162722
1	8119	820.254124086552	0.109981854531
1	8124	820.462058851095	0.207918193191
1	8139	822.115929978185	0.085202023997
1	8146	822.323864742728	0.127542997706
1	8151	822.531799507271	0.226849849316
1	8156	822.739734271814	0.250856472329
1	8159	822.947669036357	0.341017611803
1	8182	825.093540450418	0.066179729809
1	8202	826.901392300687	0.177582418986
1	8212	828.447490801829	0.007164580407
1	8217	828.655425566372	0.10507578703
1	8252	834.867233017501	0.200742138022
1	8259	835.075167782044	0.134186542623
1	8262	835.283102546587	0.286437237392
1	8274	836.721346954954	0.07663963526
1	8293	841.407760345264	0.034091194353
1	8303	843.354957324687	0.186537760544
1	8308	843.56289208923	0.00074750439
1	8330	844.898643276839	0.087286173071
1	8333	845.106578041382	0.273861503961
1	8345	845.599858068738	0.105023303703
1	8350	845.807792833281	0.257280570243
1	8355	846.015727597824	0.248822323043
1	8360	846.223662362367	0.333896620038
1	8362	846.223662362367	0.205329236813
1	8381	848.590139537178	0.047829589297
1	8391	849.012735317648	0.089495600417
1	8408	852.032118214948	0.148960802518
1	8411	852.240052979491	0.233614978411
1	8461	857.875489315991	0.007554889371
1	8473	858.786003964194	0.061882837664
1	8480	858.993938728737	0.25078285287
1	8487	859.20187349328	0.391722532168
1	8489	859.20187349328	0.380320250152
1	8490	859.20187349328	0.116544322794
1	8492	859.409808257823	0.324089899769
1	8505	861.367517008814	0.085761077127
1	8510	861.575451773357	0.096503755355
1	8525	862.604131581095	0.206738503776
1	8576	868.738523570332	0.121895842893
1	8581	868.946458334875	0.006674660429
1	8623	873.695621614138	0.205070274207
1	8626	873.903556378681	0.289788742244
1	8649	878.668300014046	0.127025936102
1	8659	879.391658529686	0.18944869355
1	8666	879.599593294229	0.066655744828
1	8669	879.807528058772	0.253704766043
1	8679	882.256381078346	0.118252068324
1	8689	882.91056173075	0.020059066062
1	8719	885.221000418657	0.166811420353
1	8729	886.440763008647	0.07748562272
1	8743	886.934811793607	0.162292857669
1	8746	887.14274655815	0.279338095038
1	8749	887.350681322693	0.420712719914
1	8762	888.519022158688	0.027033436526
1	8777	890.721567775352	0.162469345935
1	8848	901.552130990119	0.124042978376
1	8853	901.760065754662	0.121265388487
1	8873	903.432246098762	0.077438036351
1	8883	904.01421749923	0.15885206625
1	8893	905.09158172735	0.167492979523
1	8922	906.619634248336	0.205261521676
1	8927	906.827569012879	0.336545085928
1	8929	906.827569012879	0.28398557884
1	8933	907.035503777422	0.215371399795
1	8936	907.243438541965	0.335685743106
1	8959	909.623784538015	0.160582074898
1	8991	913.279423092823	0.185321453539
1	8994	913.487357857366	0.349822178973
1	9032	916.426910826703	0.176911691355
1	9056	918.354538456968	0.387520298793
1	9057	918.354538456968	0.00434890299
1	9076	921.286030474119	0.189239780668
1	9081	921.493965238662	0.056368880537
1	9088	921.701900003205	0.170514757018
1	9091	921.909834767748	0.243722062461
1	9101	922.73037538809	0.159411166597
1	9138	927.212964639604	0.206609813794
1	9141	927.420899404147	0.347535287431
1	9159	930.893515980497	0.193934644652
1	9164	931.10145074504	0.05202919656
1	9174	931.586992103184	0.149123414952
1	9204	934.40670030685	0.093938895229
1	9219	935.210349335838	0.034153142562
1	9229	935.853983098585	0.10603454998
1	9236	936.061917863128	0.167310998443
1	9241	936.269852627671	0.253750483153
1	9246	936.477787392214	0.297822144556
1	9248	936.477787392214	0.153502168196
1	9292	941.12019360806	0.122461882244
1	9307	942.09486694711	0.146574602391
1	9314	942.507618827681	0.316669269746
1	9336	944.540659180365	0.041229958142
1	9368	948.072805436595	0.132405923709
1	9371	948.280740201138	0.326913095823
1	9396	951.089833844619	0.189370169437
1	9399	951.297768609162	0.349775129113
1	9407	951.534856211661	0.002762803948
1	9427	954.510005332567	0.186189369307
1	9437	955.223050942821	0.102352738107
1	9467	959.417824730488	0.005400901971
1	9489	963.329708505369	0.084590473662
1	9492	963.537643269912	0.275146912093
1	9522	968.881534216961	0.141586376543
1	9539	971.828822554546	0.109473484358
1	9542	972.036757319089	0.295258406089
1	9581	977.426324666454	0.138999967852
1	9606	978.95908222376	0.040073613622
1	9628	981.966732847596	0.192145016661
1	9631	982.174667612139	0.305481405259
1	9641	983.893726158374	0.153714641531
1	9644	984.101660922917	0.269092054533
1	9649	984.30959568746	0.036021889944
1	9689	992.482597626201	0.069061095359
1	9699	993.749670376041	0.129079133467
1	9714	996.560897554421	0.134076189894
1	9724	997.895794315535	0.177694708124
1	9729	998.103729080078	0.167350738284
1	9739	999.397736230283	0.090413714278
1	9744	999.605670994826	0.186945485359
1	9749	999.813605759369	0.163828088906
2	7	1.653590311822	0.207934764543
2	10	1.861525076365	0.308780702747
2	15	2.466636868557	0.207934764543
2	22	2.902648065602	0.207934764543
2	25	3.110582830145	0.230575121248
2	30	3.571845294214	0.207934764543
2	35	4.548439099058	0.207934764543
2	44	5.124800218364	0.207934764543
2	47	5.332734982907	0.381226883102
2	53	5.70399688783	0.207934764543
2	58	6.388176501537	0.207934764543
2	65	6.884972566433	0.207934764543
2	70	7.092907330976	0.250241244707
2	73	7.300842095519	0.389167143013
2	80	7.819653415096	0.207934764543
2	83	8.027588179639	0.233340461413
2	88	8.788990182415	0.207934764543
2	93	9.215403054061	0.207934764543
2	98	9.709028762595	0.207934764543
2	103	10.140950160193	0.207934764543
2	110	10.433984193761	0.207934764543
2	113	10.641918958304	0.413220532099
2	118	12.091380321485	0.207934764543
2	123	12.558161558607	0.207934764543
2	128	13.694997886343	0.207934764543
2	135	14.305435717694	0.207934764543
2	140	14.513370482237	0.306291093817
2	143	14.72130524678	0.253318803949
2	150	15.129030937696	0.207934764543
2	153	15.336965702239	0.365703113666
2	158	15.605124563864	0.207934764543
2	163	16.80932783521	0.207934764543
2	168	17.419631955817	0.207934764543
2	173	17.978346612761	0.207934764543
2	178	19.302732929457	0.207934764543
2	187	20.178386494068	0.207934764543
2	192	20.386321258611	0.389575184893
2	195	20.594256023154	0.460866791793
2	205	21.394057191847	0.207934764543
2	210	21.60199195639	0.353638344773
2	213	21.809926720933	0.448634098999
2	216	22.017861485476	0.429720403377
2	221	22.444443521165	0.207934764543
2	226	23.257763127381	0.207934764543
2	231	23.484268940397	0.207934764543
2	236	25.241609701027	0.207934764543
2	243	25.70278206171	0.207934764543
2	246	25.910716826253	0.213402461971
2	251	26.36923532785	0.207934764543
2	256	26.694681514157	0.207934764543
2	264	27.107433394728	0.232565253434
2	267	27.315368159271	0.34192202963
2	272	27.720344931016	0.207934764543
2	277	28.884473276156	0.207934764543
2	282	29.199953805498	0.207934764543
2	287	29.921017376663	0.207934764543
2	294	30.386621758157	0.207934764543
2	297	30.5945565227	0.30500941385
2	302	30.933026360568	0.207934764543
2	307	31.160632082471	0.207934764543
2	312	31.635024314876	0.207934764543
2	317	32.087677794594	0.207934764543
2	324	32.314300786794	0.207934764543
2	329	32.522235551337	0.395409430991
2	332	32.73017031588	0.255382564352
2	337	33.553145403435	0.207934764543
2	342	33.765216969973	0.207934764543
2	351	34.276419661066	0.207934764543
2	356	34.484354425609	0.24103198696
2	359	34.692289190152	0.439305504412
2	365	35.336599040453	0.207934764543
2	370	36.661837260096	0.207934764543
2	375	36.92134399171	0.207934764543
2	384	37.817239793061	0.207934764543
2	389	38.025174557604	0.414064329455
2	395	38.233109322147	0.214611474894
2	400	38.44104408669	0.401217904687
2	403	38.648978851233	0.40377494705
2	408	39.913257395684	0.207934764543
2	413	40.296545994751	0.207934764543
2	418	41.021176333448	0.207934764543
2	423	42.401835330255	0.207934764543
2	428	43.366375600048	0.207934764543
2	433	44.412353970337	0.207934764543
2	438	44.849675107837	0.207934764543
2	443	45.546988314033	0.207934764543
2	448	46.860432748657	0.207934764543
2	453	47.173173439209	0.207934764543
2	458	47.578630901188	0.207934764543
2	463	48.187161027262	0.207934764543
2	472	48.763900036386	0.207934764543
2	475	48.971834800929	0.396124051879
2	483	49.45716872147	0.207934764543
2	488	49.665103486013	0.370984475419
2	491	49.873038250556	0.307434516632
2	496	50.173928831767	0.207934764543
2	503	51.339721923022	0.207934764543
2	506	51.547656687565	0.248253605252
2	511	52.959020381821	0.207934764543
2	516	54.039268056255	0.207934764543
2	522	55.926513716505	0.207934764543
2	527	56.463928096859	0.207934764543
2	534	56.8984818141	0.207934764543
2	537	57.106416578643	0.266540470588
2	544	58.899417533963	0.207934764543
2	547	59.107352298506	0.236045140723
2	552	59.521740786091	0.207934764543
2	559	59.880959634954	0.207934764543
2	564	60.088894399497	0.214621270268
2	567	60.29682916404	0.217601571027
2	572	60.609590253277	0.207934764543
2	577	61.329611043892	0.207934764543
2	582	61.622360741204	0.207934764543
2	587	62.099679503137	0.207934764543
2	592	62.754433585708	0.207934764543
2	597	63.032431335388	0.207934764543
2	604	63.52906085205	0.207934764543
2	607	63.736995616593	0.309188857886
2	614	64.629852655347	0.207934764543
2	619	64.83778741989	0.405047870515
2	622	65.045722184433	0.408222638798
2	627	65.952743846294	0.207934764543
2	632	66.539550002657	0.207934764543
2	637	67.053446213265	0.207934764543
2	642	67.324609346495	0.207934764543
2	649	67.686223600923	0.207934764543
2	656	67.894158365466	0.301375134152
2	661	68.102093130009	0.376700025911
2	665	68.310027894552	0.21313845216
2	670	68.759879995825	0.207934764543
2	675	69.285350739371	0.207934764543
2	680	70.691895254646	0.207934764543
2	685	70.957920373816	0.207934764543
2	692	72.641330575762	0.207934764543
2	695	72.849265340305	0.321304186978
2	700	73.653088567039	0.207934764543
2	705	73.918722855755	0.207934764543
2	710	75.217494703524	0.207934764543
2	715	75.494738748897	0.207934764543
2	722	75.933457307024	0.207934764543
2	727	76.141392071567	0.265740258544
2	730	76.34932683611	0.211344139516
2	735	76.652782054046	0.207934764543
2	744	78.404383751441	0.207934764543
2	747	78.612318515984	0.318942536596
2	752	78.820253280527	0.48985473029
2	755	79.02818804507	0.309262534557
2	760	79.508178154386	0.207934764543
2	765	79.719307417361	0.207934764543
2	770	80.037693184108	0.207934764543
2	776	80.450445064679	0.213658280957
2	783	81.204769576178	0.207934764543
2	786	81.412704340721	0.323440965627
2	793	81.629259254793	0.207934764543
2	798	81.837194019336	0.262078404988
2	805	82.045128783879	0.27452880357
2	808	82.253063548422	0.298502310312
2	811	82.460998312965	0.432506356307
2	816	83.099330313947	0.207934764543
2	821	83.384255521743	0.207934764543
2	826	83.636998194937	0.207934764543
2	831	85.441534839765	0.207934764543
2	836	85.728909074091	0.207934764543
2	843	86.515582242848	0.207934764543
2	852	86.723517007391	0.379866744158
2	859	86.931451771934	0.390179804471
2	863	87.139386536477	0.463007087625
2	869	87.34732130102	0.489590649394
2	872	87.555256065563	0.363128095104
2	881	87.946398580294	0.207934764543
2	888	88.154333344837	0.336792411108
2	891	88.36226810938	0.437397254408
2	898	89.191833881908	0.207934764543
2	903	89.588404870026	0.207934764543
2	910	89.923379316085	0.207934764543
2	915	90.131314080628	0.235854207683
2	918	90.339248845171	0.224681459366
2	925	90.554559614709	0.207934764543
2	928	90.762494379252	0.342321240579
2	933	91.107578544221	0.207934764543
2	938	92.385784369118	0.207934764543
2	943	92.786022078154	0.207934764543
2	948	94.342678050648	0.207934764543
2	953	94.603994612013	0.207934764543
2	958	95.221187150235	0.207934764543
2	963	95.442344573835	0.207934764543
2	968	96.441265556096	0.207934764543
2	973	96.745876309663	0.207934764543
2	978	97.032933479493	0.207934764543
2	983	97.504549165087	0.207934764543
2	992	97.83094324281	0.207934764543
2	995	98.038878007353	0.275354906509
2	998	98.246812771896	0.453279697119
2	1003	98.613857678819	0.207934764543
2	1008	98.840387362178	0.207934764543
2	1015	99.568243981429	0.207934764543
2	1020	99.776178745972	0.213757302709
2	1023	99.984113510515	0.270582326485
2	1028	100.347082819021	0.207934764543
2	1033	101.184455053294	0.207934764543
2	1039	101.681735025491	0.207934764543
2	1046	102.267232608601	0.207934764543
2	1049	102.475167373144	0.225525514636
2	1054	103.367621213191	0.207934764543
2	1059	103.92855213947	0.207934764543
2	1064	104.489908843517	0.207934764543
2	1071	105.11545441913	0.207934764543
2	1074	105.323389183673	0.320934824176
2	1079	105.837534699269	0.207934764543
2	1086	106.157525949347	0.207934764543
2	1091	106.36546071389	0.369800194591
2	1096	106.573395478433	0.223661103493
2	1099	106.781330242976	0.345644853272
2	1104	107.217121149745	0.207934764543
2	1111	107.774193898462	0.207934764543
2	1118	107.982128663005	0.368125761856
2	1121	108.190063427548	0.319983383454
2	1127	109.785087491528	0.207934764543
2	1132	110.149144056292	0.207934764543
2	1139	110.397777474065	0.207934764543
2	1142	110.605712238608	0.375020782327
2	1147	111.250306152391	0.207934764543
2	1156	111.563978736905	0.207934764543
2	1161	111.771913501448	0.230747723565
2	1164	111.979848265991	0.426117951667
2	1172	112.727418054444	0.207934764543
[...]
8	5760	577.646695380613	0
8	5763	577.854630145156	0
8	5770	578.659643228062	0
8	5773	578.867577992605	0
8	5778	579.092232953424	0
8	5787	579.458079023777	0
8	5790	579.66601378832	0
8	5793	579.873948552863	0
8	5798	580.182308946392	0
8	5803	580.991981277192	0
8	5808	581.470056870979	0
8	5813	581.86876679546	0
8	5820	582.861909870339	0
8	5823	583.069844634882	0
8	5828	583.92258268273	0
8	5833	584.53726434963	0
8	5840	584.969240088589	0
8	5845	585.177174853132	0
8	5850	585.385109617675	0
8	5857	585.593044382218	0
8	5860	585.800979146761	0
8	5866	587.117239597282	0
8	5871	587.676739205275	0
8	5876	587.930122048011	0
8	5881	588.203449765319	0
8	5886	589.588156268096	0
8	5891	590.010292758494	0
8	5898	590.613992452148	0
8	5903	590.821927216691	0
8	5908	591.029861981234	0
8	5911	591.237796745777	0
8	5916	592.140480905882	0
8	5923	592.6819614367	0
8	5926	592.889896201243	0
8	5931	593.780220637561	0
8	5936	594.453615249542	0
8	5941	594.873005415358	0
8	5950	595.258057865381	0
8	5962	595.715460105081	0
8	5969	595.923394869624	0
8	5974	596.131329634167	0
8	5981	596.33926439871	0
8	5984	596.547199163253	0
8	5989	597.456261920473	0
8	5994	597.7953381049	0
8	5999	598.207533247964	0
8	6006	598.60731604055	0
8	6011	598.815250805093	0
8	6014	599.023185569636	0
8	6019	600.453961605997	0
8	6024	601.864934635655	0
8	6029	602.480404207744	0
8	6034	602.801723649905	0
8	6039	604.029623312896	0
8	6044	604.319297772225	0
8	6051	604.554089595172	0
8	6058	604.762024359715	0
8	6061	604.969959124258	0
8	6064	605.177893888801	0
8	6071	606.698813694479	0
8	6074	606.906748459022	0
8	6079	607.861254134218	0
8	6086	608.32187795408	0
8	6093	608.529812718623	0
8	6096	608.737747483166	0
8	6099	608.945682247709	0
8	6104	609.392492269848	0
8	6111	609.870428993296	0
8	6116	610.078363757839	0
8	6119	610.286298522382	0
8	6126	610.888533017977	0
8	6131	611.09646778252	0
8	6136	611.304402547063	0
8	6139	611.512337311606	0
8	6144	611.784618496516	0
8	6151	613.023301255806	0
8	6154	613.231236020349	0
8	6163	613.535213264273	0
8	6170	613.743148028816	0
8	6175	613.951082793359	0
8	6180	614.159017557902	0
8	6185	614.521464852404	0
8	6194	615.251702848904	0
8	6197	615.459637613447	0
8	6207	616.613297700428	0
8	6210	616.821232464971	0
8	6213	617.029167229514	0
8	6218	617.766951620588	0
8	6226	618.500664524819	0
8	6229	618.708599289362	0
8	6234	619.774340686385	0
8	6243	619.991198224316	0
8	6246	620.199132988859	0
8	6251	620.407067753402	0
8	6254	620.615002517945	0
8	6259	621.154572797524	0
8	6264	621.725170199526	0
8	6269	622.186004921521	0
8	6274	622.491254039313	0
8	6279	622.938789447164	0
8	6288	623.703288941393	0
8	6291	623.911223705936	0
8	6297	624.35061683659	0
8	6302	625.744761340016	0
8	6307	626.193861079286	0
8	6312	627.31137286288	0
8	6317	627.610294079721	0
8	6322	627.931153594349	0
8	6327	628.984427040823	0
8	6332	630.653469976384	0
8	6339	631.63787893141	0
8	6344	631.845813695953	0
8	6351	632.053748460496	0
8	6356	632.261683225039	0
8	6360	632.469617989582	0
8	6367	632.709247196076	0
8	6372	632.917181960619	0
8	6375	633.125116725162	0
8	6380	633.854768369752	0
8	6385	634.171039392606	0
8	6390	634.405986310267	0
8	6397	634.702025075418	0
8	6400	634.909959839961	0
8	6405	635.483094073212	0
8	6410	636.859342195246	0
8	6417	637.117055893735	0
8	6422	637.324990658278	0
8	6427	637.532925422821	0
8	6430	637.740860187364	0
8	6435	638.081440792358	0
8	6440	638.457175908931	0
8	6445	639.22087414157	0
8	6450	641.196946294069	0
8	6455	641.789079845883	0
8	6460	642.4773985143	0
8	6465	643.375454612138	0
8	6470	643.772251282081	0
8	6475	644.192267602064	0
8	6481	644.605019482635	0
8	6488	644.871327278182	0
8	6493	645.079262042725	0
8	6498	645.287196807268	0
8	6501	645.495131571811	0
8	6508	646.578009948664	0
8	6511	646.785944713207	0
8	6516	649.747817436834	0
8	6523	651.257259812457	0
8	6526	651.465194577	0
8	6531	652.488295556234	0
8	6536	653.478623427589	0
8	6541	653.856818895569	0
8	6548	654.139333863436	0
8	6551	654.347268627979	0
8	6558	654.688751120888	0
8	6561	654.896685885431	0
8	6566	655.272391411281	0
8	6571	655.902197212472	0
8	6578	656.126871185006	0
8	6581	656.334805949549	0
8	6586	657.031585476887	0
8	6591	657.325308768229	0
8	6598	657.727139831602	0
8	6603	657.935074596145	0
8	6606	658.143009360688	0
8	6611	660.549183996968	0
8	6618	660.982010059006	0
8	6621	661.189944823549	0
8	6628	662.858084429153	0
8	6631	663.066019193696	0
8	6638	663.274002235583	0
8	6641	663.481937000126	0
8	6648	663.789308372629	0
8	6651	663.997243137172	0
8	6656	664.299114891262	0
8	6661	664.612769214643	0
8	6666	664.892355845733	0
8	6673	665.15689856495	0
8	6676	665.364833329493	0
8	6681	665.72532269677	0
8	6686	665.969799915379	0
8	6693	666.645167498541	0
8	6696	666.853102263084	0
8	6701	667.13989823217	0
8	6706	667.815617017132	0
8	6711	669.226860829975	0
8	6716	670.31848094097	0
8	6721	671.429807226975	0
8	6728	672.535887819294	0
8	6736	672.948639699865	0
8	6739	673.156574464408	0
8	6749	674.848177503758	0
8	6752	675.056112268301	0
8	6755	675.264047032844	0
8	6760	675.660929605764	0
8	6765	676.370591150352	0
8	6770	676.670951134926	0
8	6775	677.638556299031	0
8	6780	678.768593652829	0
8	6785	679.779063644889	0
8	6790	681.100210965066	0
8	6797	681.402676195583	0
8	6802	681.610610960126	0
8	6805	681.818545724669	0
8	6810	682.573948368299	0
8	6815	682.899850907956	0
8	6820	683.644753474658	0
8	6825	684.691558308777	0
8	6832	685.019149103976	0
8	6835	685.227083868519	0
8	6842	685.81898565244	0
8	6847	686.026920416983	0
8	6852	686.234855181526	0
8	6855	686.442789946069	0
8	6860	687.076741170954	0
8	6865	687.536677884066	0
8	6870	688.635083369462	0
8	6875	689.4791412167	0
8	6882	689.696280500434	0
8	6885	689.904215264977	0
8	6890	691.2766558408	0
8	6897	691.806915893416	0
8	6902	692.014850657959	0
8	6907	692.222785422502	0
8	6910	692.430720187045	0
8	6915	692.699555862667	0
8	6922	692.930760643393	0
8	6925	693.138695407936	0
8	6930	693.700179530028	0
8	6939	694.156374241264	0
8	6944	694.364309005807	0
8	6949	694.57224377035	0
8	6952	694.780178534893	0
8	6958	695.183404384284	0
8	6963	696.885614437294	0
8	6972	697.380985120026	0
8	6975	697.588919884569	0
8	6980	697.796854649112	0
8	6983	698.004789413655	0
8	6989	699.247236601389	0
8	6994	700.238683151048	0
8	6999	700.526945141374	0
8	7006	702.77742898615	0
8	7009	702.985363750693	0
8	7014	703.493424921299	0
8	7019	705.391412487762	0
8	7024	706.195561095206	0
8	7029	707.018475041105	0
8	7034	707.243054528316	0
8	7039	707.585239116845	0
8	7046	707.815358894172	0
8	7049	708.023293658715	0
8	7054	708.315069588404	0
8	7059	709.495485738451	0
8	7064	710.509695369219	0
8	7071	711.195568249059	0
8	7078	711.403503013602	0
8	7083	711.611437778145	0
8	7088	711.819372542688	0
8	7094	712.027307307231	0
8	7097	712.235242071774	0
8	7102	712.443999796898	0
8	7109	712.852438133493	0
8	7112	713.060372898036	0
8	7117	713.342493796331	0
8	7122	713.62020584105	0
8	7127	715.486123801618	0
8	7132	716.110354077018	0
8	7137	716.649261489858	0
8	7144	718.470577143902	0
8	7147	718.678511908445	0
8	7154	720.100145347949	0
8	7159	720.308080112492	0
8	7164	720.516014877035	0
8	7167	720.723949641578	0
8	7176	722.814997450811	0
8	7179	723.022932215354	0
8	7187	723.693515304471	0
8	7192	723.901450069014	0
8	7197	724.109384833557	0
8	7202	724.3173195981	0
8	7207	724.525254362643	0
8	7210	724.733189127186	0
8	7215	725.114036882362	0
8	7220	725.453962765496	0
8	7227	726.080888174251	0
8	7232	726.288822938794	0
8	7235	726.496757703337	0
8	7240	726.839484288941	0
8	7246	727.400523332381	0
8	7253	728.459322797781	0
8	7256	728.667257562324	0
8	7261	728.926041464379	0
8	7266	729.288931715409	0
8	7271	729.569969521035	0
8	7278	730.616340646369	0
8	7281	730.824275410912	0
8	7286	732.73973215943	0
8	7295	733.164852619697	0
8	7300	733.37278738424	0
8	7306	733.580722148783	0
8	7309	733.788656913326	0
8	7316	734.629632772942	0
8	7319	734.837567537485	0
8	7324	735.318096954416	0
8	7329	736.620795173844	0
8	7334	737.152651637272	0
8	7339	737.674985592391	0
8	7344	740.260083168226	0
8	7353	740.665349445471	0
8	7356	740.873284210014	0
8	7364	741.43805150681	0
8	7367	741.645986271353	0
8	7372	741.892661867058	0
8	7379	742.288088129874	0
8	7384	742.496022894417	0
8	7387	742.70395765896	0
8	7394	743.532073486427	0
8	7397	743.74000825097	0
8	7404	744.200269290609	0
8	7411	744.408204055152	0
8	7416	744.616138819695	0
8	7419	744.824073584238	0
8	7425	745.20814901127	0
8	7430	745.557489550845	0
8	7437	745.891527444961	0
8	7442	746.099462209504	0
8	7445	746.307396974047	0
8	7454	748.564208036271	0
8	7457	748.772142800814	0
8	7460	748.980077565357	0
8	7465	749.534551198729	0
8	7470	750.143478229812	0
8	7477	750.441708769584	0
8	7482	750.649643534127	0
8	7485	750.85757829867	0
8	7490	751.751977978821	0
8	7495	752.070413498551	0
8	7502	753.251477482058	0
8	7508	753.664229362629	0
8	7511	753.872164127172	0
8	7518	755.556727149062	0
8	7521	755.764661913605	0
8	7526	756.184190125397	0
8	7533	756.521875286642	0
8	7536	756.729810051185	0
8	7543	757.211182814068	0
8	7546	757.419117578611	0
8	7551	757.839864431577	0
8	7556	759.208886130551	0
8	7561	760.180075600536	0
8	7566	760.546171476788	0
8	7571	762.197294219511	0
8	7576	763.537351298296	0
8	7583	764.879000652654	0
8	7588	765.086935417197	0
8	7591	765.29487018174	0
8	7596	765.731202359903	0
8	7601	767.51684416629	0
8	7608	768.545878026886	0
8	7611	768.753812791429	0
8	7616	769.566763200256	0
8	7623	769.919544650736	0
8	7626	770.127479415279	0
8	7631	771.010487222466	0
8	7636	771.878712997931	0
8	7641	772.207545334328	0
8	7646	772.752494600333	0
8	7651	773.012596483293	0
8	7656	773.464468766422	0
8	7665	773.935651926508	0
8	7672	774.143586691051	0
8	7676	774.351521455594	0
8	7679	774.559456220137	0
8	7684	775.45312335995	0
8	7689	775.744713181782	0
8	7694	776.420348299453	0
8	7699	776.671550007666	0
8	7706	777.802752589231	0
8	7709	778.010687353774	0
8	7716	779.121506567197	0
8	7719	779.32944133174	0
8	7724	780.263271150047	0
8	7729	780.823526633158	0
8	7734	782.117338404974	0
8	7739	783.111062807214	0
8	7746	783.794123557581	0
8	7749	784.002058322124	0
8	7754	784.654888391485	0
8	7760	785.067640272056	0
8	7765	786.20494950485	0
8	7770	786.54479734083	0
8	7775	787.321506466761	0
8	7780	787.642843375417	0
8	7785	788.430107329684	0
8	7790	789.01850224702	0
8	7795	789.246552867852	0
8	7800	789.688625787692	0
8	7807	790.302602990927	0
8	7814	790.51053775547	0
8	7819	790.718472520013	0
8	7822	790.926407284556	0
8	7828	791.217375228004	0
8	7833	792.018911333051	0
8	7838	792.538759323167	0
8	7845	792.798567767885	0
8	7848	793.006502532428	0
8	7853	793.294145587679	0
8	7858	793.621473507789	0
8	7863	794.099573392018	0
8	7868	794.515148733897	0
8	7873	795.066865132046	0
8	7884	795.603189790846	0
8	7887	795.811124555389	0
8	7890	796.019059319932	0
8	7896	796.71034734424	0
8	7903	797.430319367863	0
8	7908	797.638254132406	0
8	7913	797.846188896949	0
8	7916	798.054123661492	0
8	7921	798.72595345467	0
8	7926	799.351746580794	0
8	7931	799.844804375573	0
8	7936	800.673593665198	0
8	7943	801.13432514178	0
8	7950	801.342259906323	0
8	7957	801.550194670866	0
8	7961	801.758129435409	0
8	7967	802.147791247199	0
8	7974	802.826331590575	0
8	7977	803.034266355118	0
8	7984	803.752677287747	0
8	7989	803.96061205229	0
8	7994	804.168546816833	0
8	7997	804.376481581376	0
8	8002	805.003688926241	0
8	8007	805.584459888252	0
8	8012	806.238798566815	0
8	8017	806.702397852238	0
8	8023	807.674660254473	0
8	8030	808.174340437159	0
8	8033	808.382275201702	0
8	8038	809.089704216728	0
8	8043	809.404862371511	0
8	8048	810.711014378567	0
8	8053	811.839248314886	0
8	8058	814.034370675619	0
8	8067	814.477764454285	0
8	8070	814.685699218828	0
8	8073	814.893633983371	0
8	8078	815.544211027903	0
8	8083	816.702483241132	0
8	8092	817.897877351894	0
8	8095	818.105812116437	0
8	8098	818.31374688098	0
8	8103	818.789385602063	0
8	8108	819.715706612491	0
8	8115	820.046189322009	0
8	8120	820.254124086552	0
8	8125	820.462058851095	0
8	8128	820.669993615638	0
8	8133	821.334804094601	0
8	8140	822.115929978185	0
8	8147	822.323864742728	0
8	8152	822.531799507271	0
8	8157	822.739734271814	0
8	8160	822.947669036357	0
8	8166	823.512161959022	0
8	8171	823.881071567462	0
8	8176	824.555333071576	0
8	8183	825.093540450418	0
8	8186	825.301475214961	0
8	8191	825.604662753539	0
8	8196	826.665049969618	0
8	8203	826.901392300687	0
8	8206	827.10932706523	0
8	8213	828.447490801829	0
8	8218	828.655425566372	0
8	8221	828.863360330915	0
8	8226	829.105192573565	0
8	8231	829.528185061953	0
8	8236	832.123372486303	0
8	8241	833.480364520533	0
8	8246	834.468467549137	0
8	8253	834.867233017501	0
8	8260	835.075167782044	0
8	8263	835.283102546587	0
8	8266	835.49103731113	0
8	8271	836.516529838926	0
8	8277	836.929281719497	0
8	8282	840.847651809879	0
8	8287	841.15236020724	0
8	8294	841.407760345264	0
8	8297	841.615695109807	0
8	8304	843.354957324687	0
8	8309	843.56289208923	0
8	8312	843.770826853773	0
8	8317	844.207351263415	0
8	8322	844.673265911945	0
8	8331	844.898643276839	0
8	8334	845.106578041382	0
8	8337	845.314512805925	0
8	8346	845.599858068738	0
8	8351	845.807792833281	0
8	8356	846.015727597824	0
8	8361	846.223662362367	0
8	8365	846.43159712691	0
8	8370	847.161219170233	0
8	8375	847.721503559787	0
8	8382	848.590139537178	0
8	8385	848.798074301721	0
8	8392	849.012735317648	0
8	8395	849.220670082191	0
8	8400	850.448244917063	0
8	8409	852.032118214948	0
8	8412	852.240052979491	0
8	8415	852.447987744034	0
8	8420	852.827867054734	0
8	8425	853.329529231144	0
8	8430	853.877578375093	0
8	8435	854.27025520305	0
8	8440	854.589185150411	0
8	8445	855.188450328192	0
8	8450	855.734095278175	0
8	8455	857.522413511962	0
8	8462	857.875489315991	0
8	8465	858.083424080534	0
8	8474	858.786003964194	0
8	8481	858.993938728737	0
8	8488	859.20187349328	0
8	8493	859.409808257823	0
8	8499	859.724234434655	0
8	8506	861.367517008814	0
8	8511	861.575451773357	0
8	8514	861.7833865379	0
8	8519	862.228869355817	0
8	8526	862.604131581095	0
8	8529	862.812066345638	0
8	8534	863.199469107776	0
8	8540	864.158549105364	0
8	8545	864.831478766858	0
8	8550	865.340377877611	0
8	8555	865.924460673111	0
8	8560	866.242742832549	0
8	8565	867.531075484653	0
8	8570	868.481637838208	0
8	8577	868.738523570332	0
8	8582	868.946458334875	0
8	8585	869.154393099418	0
8	8590	869.865071325815	0
8	8595	870.5148581507	0
8	8600	871.193398383274	0
8	8605	871.597213899544	0
8	8610	872.427232781663	0
8	8615	872.806274140478	0
8	8624	873.695621614138	0
8	8627	873.903556378681	0
8	8633	874.562175056716	0
8	8638	877.498320433514	0
8	8643	877.753289875325	0
8	8650	878.668300014046	0
8	8653	878.876234778589	0
8	8660	879.391658529686	0
8	8667	879.599593294229	0
8	8670	879.807528058772	0
8	8673	880.015462823315	0
8	8680	882.256381078346	0
8	8683	882.464315842889	0
8	8690	882.91056173075	0
8	8693	883.118496495293	0
8	8698	883.437273187545	0
8	8703	883.869228427005	0
8	8708	884.087915722615	0
8	8713	884.826435075401	0
8	8720	885.221000418657	0
8	8723	885.4289351832	0
8	8730	886.440763008647	0
8	8733	886.64869777319	0
8	8744	886.934811793607	0
8	8747	887.14274655815	0
8	8750	887.350681322693	0
8	8756	888.080361283449	0
8	8763	888.519022158688	0
8	8766	888.726956923231	0
8	8771	888.962769105041	0
8	8778	890.721567775352	0
8	8781	890.929502539895	0
8	8786	891.383564671358	0
8	8791	891.738793364801	0
8	8797	893.46167666	0
8	8802	894.624520862173	0
8	8807	895.030319164952	0
8	8812	895.312591045131	0
8	8817	895.887916549689	0
8	8822	896.691715701799	0
8	8827	897.566830610985	0
8	8832	900.088583796666	0
8	8837	901.101415117956	0
8	8842	901.327527949656	0
8	8849	901.552130990119	0
8	8854	901.760065754662	0
8	8857	901.968000519205	0
8	8862	902.650084868102	0
8	8867	903.200151904222	0
8	8874	903.432246098762	0
8	8877	903.640180863305	0
8	8884	904.01421749923	0
8	8887	904.222152263773	0
8	8894	905.09158172735	0
8	8897	905.299516491893	0
8	8902	905.706948607279	0
8	8907	905.956596449205	0
8	8912	906.293077838632	0
8	8923	906.619634248336	0
8	8928	906.827569012879	0
8	8934	907.035503777422	0
8	8937	907.243438541965	0
8	8943	907.714133453627	0
8	8948	908.182749878635	0
8	8953	908.883122474293	0
8	8960	909.623784538015	0
8	8963	909.831719302558	0
8	8968	910.13071127473	0
8	8973	910.435425164328	0
8	8978	911.034285602337	0
8	8983	912.354420077961	0
8	8992	913.279423092823	0
8	8995	913.487357857366	0
8	9001	913.7967067381	0
8	9006	914.276189120745	0
8	9011	914.528063900571	0
8	9016	914.853055602249	0
8	9021	915.757958986409	0
8	9026	915.982960093407	0
8	9033	916.426910826703	0
8	9036	916.634845591246	0
8	9041	916.92080353697	0
8	9046	917.394424744227	0
8	9053	918.14972134094	0
8	9060	918.562473221511	0
8	9065	919.279831284248	0
8	9070	920.771196427428	0
8	9077	921.286030474119	0
8	9082	921.493965238662	0
8	9089	921.701900003205	0
8	9092	921.909834767748	0
8	9095	922.117769532291	0
8	9102	922.73037538809	0
8	9105	922.938310152633	0
8	9110	923.301185537586	0
8	9115	923.761622979802	0
8	9120	924.504993745623	0
8	9125	925.565753067299	0
8	9130	926.145518382594	0
8	9139	927.212964639604	0
8	9142	927.420899404147	0
8	9148	928.075409100306	0
8	9153	928.80436260089	0
8	9160	930.893515980497	0
8	9165	931.10145074504	0
8	9168	931.309385509583	0
8	9175	931.586992103184	0
8	9178	931.794926867727	0
8	9183	932.613903609959	0
8	9188	933.053240243245	0
8	9193	933.670609294365	0
8	9198	934.076489702216	0
8	9205	934.40670030685	0
8	9208	934.614635071393	0
8	9213	934.916561740555	0
8	9220	935.210349335838	0
8	9223	935.418284100381	0
8	9230	935.853983098585	0
8	9237	936.061917863128	0
8	9242	936.269852627671	0
8	9247	936.477787392214	0
8	9251	936.685722156757	0
8	9256	937.215029636037	0
8	9261	937.467226801771	0
8	9266	938.058992676229	0
8	9271	940.087754367763	0
8	9276	940.345635406954	0
8	9281	940.564452348589	0
8	9286	940.776205879461	0
8	9293	941.12019360806	0
8	9296	941.328128372603	0
8	9301	941.870481458424	0
8	9308	942.09486694711	0
8	9313	942.302801711653	0
8	9320	943.025831957225	0
8	9325	943.385354486838	0
8	9330	944.212501500028	0
8	9337	944.540659180365	0
8	9340	944.748593944908	0
8	9345	946.009734539642	0
8	9350	946.360760923003	0
8	9355	946.571579089709	0
8	9360	946.867485231084	0
8	9369	948.072805436595	0
8	9372	948.280740201138	0
8	9378	949.055015513125	0
8	9383	949.279599623115	0
8	9388	950.194791195026	0
8	9397	951.089833844619	0
8	9400	951.297768609162	0
8	9408	951.534856211661	0
8	9411	951.742790976204	0
8	9416	952.225419416007	0
8	9421	952.867403897265	0
8	9428	954.510005332567	0
8	9431	954.71794009711	0
8	9438	955.223050942821	0
8	9441	955.430985707364	0
8	9446	956.581409573025	0
8	9451	957.147963614608	0
8	9456	958.395145340566	0
8	9461	959.010593773477	0
8	9468	959.417824730488	0
8	9471	959.625759495031	0
8	9476	960.230427507585	0
8	9481	962.151553822025	0
8	9490	963.329708505369	0
8	9493	963.537643269912	0
8	9496	963.745578034455	0
8	9501	964.951917860407	0
8	9506	965.439774692426	0
8	9511	967.246087370165	0
8	9516	967.970550080074	0
8	9523	968.881534216961	0
8	9526	969.089468981504	0
8	9531	969.913482226837	0
8	9540	971.828822554546	0
8	9543	972.036757319089	0
8	9549	973.69183264083	0
8	9554	974.177036726153	0
8	9559	974.390883580005	0
8	9564	974.665755810426	0
8	9569	976.28728810909	0
8	9574	976.526881068023	0
8	9582	977.426324666454	0
8	9585	977.634259430997	0
8	9590	978.195582773999	0
8	9595	978.466372826101	0
8	9600	978.677857605395	0
8	9607	978.95908222376	0
8	9610	979.167016988303	0
8	9615	980.932998421688	0
8	9620	981.53962203321	0
8	9629	981.966732847596	0
8	9632	982.174667612139	0
8	9642	983.893726158374	0
8	9645	984.101660922917	0
8	9650	984.30959568746	0
8	9653	984.517530452003	0
8	9658	985.202090001892	0
8	9663	985.663979560258	0
8	9668	986.417461093743	0
8	9673	986.946459316291	0
8	9678	989.205006668252	0
8	9683	992.00668028992	0
8	9690	992.482597626201	0
8	9693	992.690532390744	0
8	9700	993.749670376041	0
8	9703	993.957605140584	0
8	9708	994.223383366899	0
8	9715	996.560897554421	0
8	9718	996.768832318964	0
8	9725	997.895794315535	0
8	9730	998.103729080078	0
8	9733	998.311663844621	0
8	9740	999.397736230283	0
8	9745	999.605670994826	0
8	9750	999.813605759369	0

