version 2
run General-450-20240201-11:04:32-40057
attr configname General
attr datetime 20240201-11:04:32
attr experiment General
attr inifile main.ini
attr iterationvars "$0=1.0, $1=3.5, $2=50"
attr iterationvarsf 1.0,3.5,50-
attr measurement "$0=1.0, $1=3.5, $2=50"
attr network Rete
attr processid 40057
attr repetition 10
attr replication #10
attr resultdir results
attr runnumber 450
attr seedset 450
param Rete.lambda 1.0
param Rete.a 0.3s
param Rete.b 3.5s
param Rete.c 0.1s
param Rete.d 0.3s
param Rete.mu 3.0
param Rete.source2.interArrivalTime exponential(1s/lambda)
param Rete.source2.jobServiceTime exponential(1s/mu)
param Rete.source2.deadline uniform(a,b)
param Rete.server2.j 50
param Rete.server2.V uniform(c,d)

vector 0 Rete.passiveQueue queueLength:vector ETV
attr interpolationmode sample-hold
attr title "queue length, vector"
vector 1 Rete.sink lifeTime:vector ETV
attr interpolationmode none
attr title "lifetime of arrived jobs, vector"
attr unit s
vector 2 Rete.sink totalQueueingTime:vector ETV
attr interpolationmode none
attr title "the total time spent in queues by arrived jobs, vector"
attr unit s
vector 3 Rete.sink queuesVisited:vector ETV
attr interpolationmode none
attr title "the total number of queues visited by arrived jobs, vector"
vector 4 Rete.sink totalServiceTime:vector ETV
attr interpolationmode none
attr title "the total time spent  by arrived jobs, vector"
attr unit s
vector 5 Rete.sink totalDelayTime:vector ETV
attr interpolationmode none
attr title "the total time spent in delay nodes by arrived jobs, vector"
attr unit s
vector 6 Rete.sink delaysVisited:vector ETV
attr interpolationmode none
attr title "the total number of delays visited by arrived jobs, vector"
vector 7 Rete.sink generation:vector ETV
attr interpolationmode none
attr title "the generation of the arrived jobs, vector"
vector 8 Rete.passiveQueue queueingTime:vector ETV
attr interpolationmode none
attr title "queueing time at dequeue, vector"
attr unit s
0	0	0	0
0	10	3.226715609043	1
0	11	3.480612082147	0
0	30	7.0276007665	1
0	31	7.1186282989	0
0	40	8.587716391191	1
0	41	8.724943719914	0
0	65	16.56916084999	1
0	66	16.708130857035	0
0	115	26.875744341702	1
0	116	26.900310444574	0
0	120	26.92002275812	1
0	121	27.233754296797	0
0	125	27.448790622034	1
0	126	27.56719814902	0
0	140	29.950977469334	1
0	141	29.959736374965	0
0	160	33.801259798916	1
0	161	34.018602705344	0
0	175	37.1718260389	1
0	176	37.286433688132	0
0	225	48.562638301438	1
0	226	48.689812705367	0
0	256	59.01778760353	1
0	257	59.349741218613	0
0	311	72.515459880895	1
0	312	72.66194352713	0
0	331	75.623756647028	1
0	332	75.892001066611	0
0	371	85.993574962047	1
0	372	86.023027527336	0
0	376	86.127724411901	1
0	378	86.224692593319	2
0	379	86.356471379559	1
0	382	86.689915231782	0
0	391	87.627602594848	1
0	392	87.899153523377	0
0	396	87.907016956857	1
0	397	88.2325973756	0
0	401	88.301921995148	1
0	403	88.446161482442	2
0	404	88.566041227823	1
0	407	88.899485080046	0
0	441	100.453649666737	1
0	442	100.592855619286	0
0	466	103.625803375894	1
0	467	103.905486444024	0
0	471	104.181866602519	1
0	472	104.238930296247	0
0	503	108.794079697817	1
0	504	109.060292569951	0
0	537	114.125858970148	1
0	538	114.244352458304	0
0	577	122.306239017679	1
0	578	122.333868330224	0
0	582	122.500071558048	1
0	583	122.667312182447	0
0	597	124.373814810154	1
0	598	124.650803403485	0
0	607	125.283922179619	1
0	609	125.289970785134	2
0	610	125.320319328385	1
0	613	125.653763180608	0
0	632	129.266483543701	1
0	633	129.371407810731	0
0	642	132.047382988208	1
0	643	132.059840547261	0
0	647	132.340841529304	1
0	648	132.393284399484	0
0	672	136.152272215447	1
0	673	136.443449870267	0
0	692	139.615720038814	1
0	693	139.833056116558	0
0	754	149.298611284552	1
0	755	149.48282948584	0
0	773	153.643826749429	1
0	774	153.77214703839	0
0	798	164.51127476696	1
0	799	164.825028388531	0
0	803	164.849539768222	1
0	805	165.062702474839	2
0	806	165.158472240754	1
0	809	165.491916092977	0
0	828	169.892666323465	1
0	829	169.898915080161	0
0	843	173.207594522096	1
0	845	173.216617245757	2
0	846	173.258495336506	1
0	849	173.591939188729	0
0	863	178.731867761785	1
0	865	178.778426037349	2
0	866	178.825628860293	1
0	869	179.159072712516	0
0	873	179.43669164623	1
0	874	179.492516564739	0
0	883	184.010418914736	1
0	884	184.104854344736	0
0	888	184.323493807565	1
0	889	184.438298196959	0
0	893	184.651351003827	1
0	894	184.771742049182	0
0	903	185.495447410084	1
0	904	185.695993554148	0
0	908	185.828807037196	1
0	910	185.858923743004	2
0	911	186.029437406371	1
0	914	186.362881258594	0
0	918	186.376095947571	1
0	920	186.384521711398	2
0	921	186.696325110817	1
0	925	186.916982054772	2
0	926	187.02976896304	1
0	929	187.363212815263	0
0	933	187.626967509178	1
0	934	187.696656667486	0
0	938	187.843667119	1
0	939	188.030100519709	0
0	948	189.911697916469	1
0	949	189.925414966419	0
0	953	190.092778836745	1
0	954	190.258858818642	0
0	958	190.543710358119	1
0	959	190.592302670865	0
0	978	192.578682983066	1
0	979	192.859490892047	0
0	983	193.184602235289	1
0	984	193.19293474427	0
0	1005	196.143010858996	1
0	1006	196.333039753913	0
0	1019	199.547499327069	1
0	1021	199.563657861587	2
0	1022	199.744600956678	1
0	1025	200.078044808901	0
0	1054	207.680041996811	1
0	1055	207.931836762264	0
0	1099	215.152303466076	1
0	1101	215.210728464641	2
0	1102	215.464111985167	1
0	1105	215.79755583739	0
0	1129	222.316045325147	1
0	1130	222.363187251612	0
0	1134	222.399925261224	1
0	1135	222.696631103835	0
0	1139	222.91869213231	1
0	1140	223.030074956058	0
0	1149	227.672355965191	1
0	1150	227.695615425101	0
0	1154	227.846334037313	1
0	1156	227.930989592627	2
0	1158	227.976814459706	3
0	1159	228.029059277324	2
0	1163	228.139032365484	3
0	1165	228.353345251697	4
0	1166	228.362503129547	3
0	1169	228.69594698177	2
0	1173	229.026944225327	3
0	1174	229.029390833993	2
0	1178	229.079579166543	3
0	1179	229.362834686216	2
0	1183	229.56284944275	3
0	1184	229.696278538439	2
0	1188	229.835638935214	3
0	1189	230.029722390662	2
0	1192	230.363166242885	1
0	1195	230.696610095108	0
0	1209	232.566944914499	1
0	1210	232.590980361958	0
0	1270	248.119899419406	1
0	1271	248.28549687461	0
0	1275	248.286378792905	1
0	1277	248.377017296613	2
0	1278	248.618940726833	1
0	1282	248.723256696821	2
0	1283	248.952384579056	1
0	1286	249.285828431279	0
0	1300	251.708449551835	1
0	1301	251.724115041444	0
0	1315	259.247740965509	1
0	1316	259.44265604425	0
0	1320	259.521470104266	1
0	1321	259.776099896473	0
0	1350	264.498946142643	1
0	1351	264.516859246367	0
0	1370	269.324592116773	1
0	1372	269.330586181883	2
0	1373	269.451915165889	1
0	1376	269.785359018112	0
0	1400	276.96781234502	1
0	1401	277.063244725871	0
0	1405	277.156644369088	1
0	1406	277.396688578094	0
0	1410	277.428983886213	1
0	1412	277.584421725289	2
0	1413	277.730132430317	1
0	1416	278.06357628254	0
0	1460	288.916034212526	1
0	1462	288.99221775026	2
0	1463	289.021296815753	1
0	1467	289.079422178742	2
0	1468	289.354740667976	1
0	1471	289.688184520199	0
0	1480	291.593803944777	1
0	1481	291.606403731516	0
0	1505	301.495365486741	1
0	1508	301.964879383426	0
0	1521	307.780874872829	1
0	1522	307.801476382629	0
0	1531	309.063853301325	1
0	1532	309.238254904119	0
0	1556	315.573090377846	1
0	1557	315.897718730782	0
0	1571	317.782891213407	1
0	1572	317.864543510597	0
0	1621	327.312005381858	1
0	1623	327.356111422033	2
0	1624	327.439544292574	1
0	1627	327.772988144797	0
0	1646	333.142726039619	1
0	1647	333.177765374875	0
0	1666	336.943194541367	1
0	1667	336.953750300689	0
0	1681	338.797113145217	1
0	1682	338.908080441521	0
0	1696	340.707221884308	1
0	1697	340.979646434707	0
0	1701	341.271058661638	1
0	1702	341.31309028693	0
0	1706	341.620247912342	1
0	1707	341.646534139153	0
0	1711	341.652292723502	1
0	1713	341.905001731342	2
0	1714	341.979977991376	1
0	1717	342.313421843599	0
0	1726	344.359913728515	1
0	1727	344.367737161484	0
0	1731	344.382367752482	1
0	1732	344.701181013707	0
0	1751	350.239324916445	1
0	1752	350.30680166836	0
0	1772	356.554650666406	1
0	1773	356.669801047639	0
0	1837	375.3770655969	1
0	1838	375.47980101296	0
0	1852	377.788412383873	1
0	1853	377.920091736005	0
0	1897	391.875130282286	1
0	1898	392.017209917427	0
0	1957	405.058686761182	1
0	1958	405.183098251637	0
0	2007	414.791006644125	1
0	2010	415.139327876267	0
0	2018	417.702210127601	1
0	2019	417.994966346198	0
0	2023	418.011101272872	1
0	2024	418.328410198421	0
0	2043	422.477307016547	1
0	2044	422.53518708295	0
0	2053	423.779154602682	1
0	2055	423.947526976118	2
0	2056	424.084271893309	1
0	2060	424.274889473103	2
0	2061	424.417715745532	1
0	2065	424.501721649985	2
0	2066	424.751159597755	1
0	2069	425.084603449978	0
0	2133	448.79732205516	1
0	2134	448.985783760642	0
0	2158	451.811831772513	1
0	2159	452.078836491789	0
0	2168	453.137968737118	1
0	2169	453.292222693873	0
0	2208	464.888494127701	1
0	2209	464.996952326709	0
0	2233	469.170881727698	1
0	2234	469.297355704761	0
0	2284	482.785146532962	1
0	2285	483.036843674813	0
0	2304	486.126003162325	1
0	2305	486.445440409667	0
0	2309	486.541216569088	1
0	2310	486.77888426189	0
0	2344	494.771223060407	1
0	2345	495.017626067821	0
0	2369	499.310184667525	1
0	2370	499.4811599216	0
0	2394	503.869512514119	1
0	2395	504.037527054892	0
0	2409	505.873842549999	1
0	2410	505.907692578424	0
0	2429	509.328958356573	1
0	2431	509.576892334715	2
0	2433	509.616762679042	3
0	2434	509.658939619072	2
0	2438	509.915852571294	3
0	2440	509.918102209143	4
0	2441	509.992383471295	3
0	2444	510.325827323518	2
0	2447	510.659271175741	1
0	2451	510.920470505229	2
0	2452	510.992715027964	1
0	2456	511.009691697448	2
0	2458	511.134534452256	3
0	2459	511.326158880187	2
0	2463	511.651267197792	3
0	2464	511.65960273241	2
0	2468	511.7010566898	3
0	2469	511.993046584633	2
0	2472	512.326490436856	1
0	2476	512.375643056347	2
0	2477	512.659934289079	1
0	2480	512.993378141302	0
0	2484	513.118533304805	1
0	2485	513.326821993525	0
0	2499	518.296339389453	1
0	2500	518.549682709054	0
0	2509	519.238217290039	1
0	2512	519.613441723647	0
0	2525	521.215895764532	1
0	2526	521.518024202721	0
0	2580	539.147348593508	1
0	2581	539.282656017501	0
0	2595	542.010096172541	1
0	2596	542.089810139045	0
0	2605	545.352456825491	1
0	2607	545.410642235273	2
0	2608	545.52217186308	1
0	2611	545.855615715303	0
0	2625	549.486284156026	1
0	2627	549.495534219556	2
0	2629	549.581110730415	3
0	2630	549.761267944848	2
0	2633	550.094711797071	1
0	2636	550.428155649294	0
0	2655	554.089445833428	1
0	2657	554.140921153046	2
0	2658	554.368821884697	1
0	2661	554.70226573692	0
0	2685	564.778558173409	1
0	2686	565.054082089596	0
0	2690	565.300557577022	1
0	2691	565.387525941819	0
0	2695	565.61832383499	1
0	2696	565.720969794042	0
0	2700	565.942621631986	1
0	2701	566.054413646265	0
0	2710	567.1727371846	1
0	2711	567.473535529986	0
0	2740	579.108368329277	1
0	2741	579.150677513072	0
0	2801	594.304142072486	1
0	2802	594.627873755565	0
0	2841	599.800371679377	1
0	2842	599.946085368387	0
0	2846	600.134564146534	1
0	2847	600.27952922061	0
0	2851	600.280142229096	1
0	2852	600.612973072833	0
0	2871	605.684003343975	1
0	2872	605.975678933178	0
0	2906	611.694668138205	1
0	2907	611.757442774474	0
0	2931	614.923880611896	1
0	2932	615.219416257948	0
0	2956	623.674498332517	1
0	2957	623.79300938858	0
0	2971	626.566175575013	1
0	2972	626.776217710823	0
0	2991	630.857756124473	1
0	2992	631.008272216123	0
0	3006	632.919716397857	1
0	3007	633.023294898959	0
0	3013	633.584267746391	1
0	3014	633.631923022573	0
0	3027	636.904353197721	1
0	3028	637.048655018635	0
0	3032	637.351481384476	1
0	3033	637.382098870858	0
0	3037	637.55651365265	1
0	3039	637.583137670502	2
0	3040	637.715542723081	1
0	3044	637.788855757739	2
0	3045	638.048986575304	1
0	3049	638.063106977433	2
0	3050	638.382430427527	1
0	3053	638.71587427975	0
0	3057	638.722609775248	1
0	3059	638.813679306733	2
0	3060	639.049318131973	1
0	3063	639.382761984196	0
0	3072	640.18161901027	1
0	3073	640.240948703544	0
0	3077	640.428311694521	1
0	3078	640.574392555767	0
0	3102	649.566846946903	1
0	3103	649.837379224786	0
0	3107	650.153905616551	1
0	3108	650.170823077009	0
0	3117	651.136617525747	1
0	3118	651.359764705635	0
0	3147	657.917966086516	1
0	3148	658.03948264728	0
0	3152	658.114335962038	1
0	3154	658.187901082711	2
0	3155	658.372926499503	1
0	3158	658.706370351726	0
0	3172	661.317506652363	1
0	3173	661.469600943843	0
0	3177	661.604402084107	1
0	3178	661.803044796066	0
0	3197	668.184048625943	1
0	3198	668.279616336487	0
0	3222	672.046871254536	1
0	3223	672.070236863029	0
0	3237	674.560106305636	1
0	3238	674.569682987898	0
0	3242	674.580551951602	1
0	3243	674.903126840121	0
0	3283	684.866181884286	1
0	3285	685.062186488399	2
0	3286	685.141702684466	1
0	3289	685.475146536689	0
0	3303	689.897549417991	1
0	3305	689.978317383314	2
0	3306	690.075918107409	1
0	3309	690.409361959632	0
0	3333	699.12795997979	1
0	3334	699.362442348813	0
0	3348	700.282573933471	1
0	3350	700.346640534447	2
0	3351	700.412527995478	1
0	3355	700.644996669069	2
0	3356	700.745971847701	1
0	3359	701.079415699924	0
0	3383	704.983160565998	1
0	3384	705.284322910265	0
0	3443	717.36532868443	1
0	3444	717.539243820127	0
0	3448	717.87193760745	1
0	3449	717.87268767235	0
0	3473	724.469482403126	1
0	3474	724.698351897733	0
0	3488	725.704491632429	1
0	3489	726.013755227481	0
0	3503	731.298208521313	1
0	3504	731.586939509077	0
0	3513	732.55860186872	1
0	3516	732.900659182297	0
0	3519	732.925291910779	1
0	3520	733.23410303452	0
0	3524	733.446570471645	1
0	3526	733.525489918385	2
0	3527	733.567546886743	1
0	3531	733.813189714373	2
0	3532	733.900990738966	1
0	3535	734.234434591189	0
0	3544	734.913690214252	1
0	3545	735.22371262633	0
0	3549	735.332824167115	1
0	3550	735.557156478553	0
0	3564	737.269808749582	1
0	3565	737.533278187176	0
0	3569	737.690765051557	1
0	3570	737.866722039399	0
0	3579	738.786619055608	1
0	3581	738.903623533977	2
0	3582	738.914529828986	1
0	3585	739.247973681209	0
0	3589	739.567889562579	1
0	3590	739.581417533432	0
0	3619	747.375597297415	1
0	3620	747.402816426476	0
0	3624	747.637200585958	1
0	3625	747.736260278699	0
0	3629	747.921069000666	1
0	3631	747.936501878862	2
0	3632	748.069704130922	1
0	3635	748.403147983145	0
0	3649	750.211947510267	1
0	3650	750.405170161979	0
0	3664	753.331218027665	1
0	3665	753.638698060903	0
0	3669	753.651030338371	1
0	3670	753.972141913126	0
0	3694	759.177089096255	1
0	3695	759.449651286667	0
0	3724	767.043447084766	1
0	3725	767.296406983356	0
0	3764	782.152743709092	1
0	3768	782.555665861109	2
0	3769	782.648336596753	1
0	3771	782.981780448976	0
0	3795	788.802669916272	1
0	3797	788.90817336094	2
0	3798	789.083675739559	1
0	3801	789.417119591782	0
0	3815	790.824487007233	1
0	3817	790.834666160125	2
0	3818	790.901876665488	1
0	3821	791.235320517711	0
0	3825	791.365540634478	1
0	3826	791.568764369934	0
0	3845	793.875140892194	1
0	3846	793.902208268737	0
0	3855	797.740316252369	1
0	3856	797.886295741236	0
0	3925	818.960704968206	1
0	3926	819.049494754323	0
0	3945	825.312275555569	1
0	3946	825.623959196836	0
0	3950	825.797155985597	1
0	3951	825.957403049059	0
0	3955	826.254259108468	1
0	3956	826.290846901282	0
0	3995	836.659343904374	1
0	3996	836.729106188253	0
0	4005	838.372667437137	1
0	4006	838.703018347465	0
0	4061	849.425143378504	1
0	4063	849.66081258291	2
0	4064	849.72597471982	1
0	4068	849.860666101742	2
0	4070	849.98783614065	3
0	4071	850.059418572043	2
0	4074	850.392862424266	1
0	4077	850.726306276489	0
0	4081	850.886342129651	1
0	4082	851.059750128712	0
0	4086	851.240832384473	1
0	4087	851.393193980935	0
0	4096	853.047280485176	1
0	4097	853.160138357645	0
0	4121	858.811296938766	1
0	4122	858.984948824957	0
0	4141	861.815072207631	1
0	4142	861.889701461109	0
0	4146	861.980991864219	1
0	4147	862.223145313332	0
0	4156	863.909726754939	1
0	4157	864.069156218118	0
0	4186	870.771653757375	1
0	4187	871.05081954838	0
0	4221	878.608314702563	1
0	4222	878.63318625512	0
0	4251	882.862292519384	1
0	4252	883.076823413036	0
0	4268	885.539367313147	1
0	4269	885.592551624468	0
0	4282	889.743860937726	1
0	4284	889.744798620671	2
0	4285	889.920019344826	1
0	4288	890.253463197049	0
0	4357	905.945334866395	1
0	4359	906.001591412334	2
0	4360	906.232186574659	1
0	4364	906.311128653971	2
0	4365	906.565630426882	1
0	4369	906.750967447365	2
0	4370	906.899074279105	1
0	4374	907.095658343433	2
0	4375	907.232518131328	1
0	4378	907.565961983551	0
0	4387	908.704386486614	1
0	4388	909.03752703652	0
0	4417	913.520532045788	1
0	4418	913.573244299959	0
0	4422	913.576214470436	1
0	4424	913.761057790459	2
0	4425	913.906688152182	1
0	4428	914.240132004405	0
0	4432	914.27639939532	1
0	4433	914.573575856628	0
0	4447	916.320078603764	1
0	4449	916.340642348344	2
0	4450	916.410154395063	1
0	4454	916.660198098953	2
0	4456	916.674435567364	3
0	4457	916.743598247286	2
0	4460	917.077042099509	1
0	4463	917.410485951732	0
0	4472	918.352740127203	1
0	4474	918.415628594703	2
0	4475	918.466722986579	1
0	4479	918.577380547368	2
0	4481	918.669153740708	3
0	4482	918.800166838802	2
0	4485	919.133610691025	1
0	4489	919.417137802626	2
0	4490	919.467054543248	1
0	4494	919.61589983237	2
0	4495	919.800498395471	1
0	4498	920.133942247694	0
0	4512	925.619987852188	1
0	4513	925.825552560397	0
0	4578	943.511942078432	1
0	4579	943.760470175316	0
0	4633	953.391966752561	1
0	4634	953.447705822391	0
0	4638	953.541322881192	1
0	4640	953.647530280854	2
0	4641	953.781149674614	1
0	4644	954.114593526837	0
0	4653	955.233780340925	1
0	4654	955.347338417575	0
0	4658	955.38193988244	1
0	4659	955.680782269798	0
0	4663	955.720178166244	1
0	4665	955.851005666316	2
0	4667	955.948511457722	3
0	4668	956.014226122021	2
0	4671	956.347669974244	1
0	4675	956.592796411146	2
0	4676	956.681113826467	1
0	4679	957.01455767869	0
0	4703	961.4715955708	1
0	4704	961.673873005398	0
0	4708	961.885628588977	1
0	4710	961.96322041385	2
0	4711	962.007316857621	1
0	4714	962.340760709844	0
0	4779	975.4762691833	1
0	4781	975.607391884007	2
0	4782	975.787675344272	1
0	4786	975.830833432452	2
0	4787	976.121119196495	1
0	4791	976.149479502303	2
0	4792	976.454563048718	1
0	4795	976.788006900941	0
0	4799	977.013884205651	1
0	4801	977.071248518417	2
0	4802	977.121450753164	1
0	4806	977.127548717333	2
0	4807	977.454894605387	1
0	4810	977.78833845761	0
0	4819	978.325535772676	1
0	4820	978.494690018556	0
0	4824	978.496631550703	1
0	4825	978.828133870779	0
0	4859	986.031301253548	1
0	4861	986.183167186422	2
0	4862	986.297877482743	1
0	4865	986.631321334966	0
0	4879	987.750688943671	1
0	4880	988.021903717793	0
0	4884	988.281324087266	1
0	4885	988.355347570016	0
0	4894	989.636938231255	1
0	4895	989.743165293719	0
1	5	1.849468204771	0.333443852223
1	12	3.480612082147	0.333443852223
1	15	3.81405593437	0.587340325327
1	20	5.004674658787	0.333443852223
1	25	6.70526931501	0.333443852223
1	32	7.1186282989	0.333443852223
1	35	7.452072151123	0.424471384623
1	42	8.724943719914	0.333443852223
1	45	9.058387572137	0.470671180946
1	50	11.614025947007	0.333443852223
1	55	13.872548896076	0.333443852223
1	60	16.351133323374	0.333443852223
1	67	16.708130857035	0.333443852223
1	70	17.041574709258	0.472413859268
1	75	18.652678288046	0.333443852223
1	80	19.633346598496	0.333443852223
1	85	20.884558062517	0.333443852223
1	90	23.606875282675	0.333443852223
1	95	23.961267861593	0.333443852223
1	100	24.430340761342	0.333443852223
1	105	25.034889790682	0.333443852223
1	110	25.819145241247	0.333443852223
1	117	26.900310444574	0.333443852223
1	122	27.233754296797	0.358009955095
1	127	27.56719814902	0.6471753909
1	130	27.900642001243	0.451851379209
1	135	29.327948603826	0.333443852223
1	142	29.959736374965	0.333443852223
1	145	30.293180227188	0.342202757854
1	150	30.7023227829	0.333443852223
1	155	32.585997919395	0.333443852223
1	162	34.018602705344	0.333443852223
1	165	34.352046557567	0.550786758651
1	170	34.838039351748	0.333443852223
1	177	37.286433688132	0.333443852223
1	180	37.619877540355	0.448051501455
1	185	39.573752337793	0.333443852223
1	190	40.054806868535	0.333443852223
1	195	40.899665334401	0.333443852223
1	200	41.89367754948	0.333443852223
1	205	43.135462019935	0.333443852223
1	210	44.560977798884	0.333443852223
1	215	45.405854402826	0.333443852223
1	220	46.820644183599	0.333443852223
1	227	48.689812705367	0.333443852223
1	230	49.02325655759	0.460618256152
1	235	51.053025993043	0.333443852223
1	240	52.641631617761	0.333443852223
1	245	57.544058666181	0.333443852223
1	250	58.420356532244	0.333443852223
1	258	59.349741218613	0.333443852223
1	261	59.683185070836	0.665397467306
1	266	60.440770334082	0.333443852223
1	271	61.389319841636	0.333443852223
1	276	61.987635709665	0.333443852223
1	281	62.370704704977	0.333443852223
1	286	63.322656875119	0.333443852223
1	291	63.857137166139	0.333443852223
1	296	64.6292587387	0.333443852223
1	301	69.079881954901	0.333443852223
1	306	70.620178919538	0.333443852223
1	313	72.66194352713	0.333443852223
1	316	72.995387379353	0.479927498458
1	321	73.520622053805	0.333443852223
1	326	73.924045592542	0.333443852223
1	333	75.892001066611	0.333443852223
1	336	76.225444918834	0.601688271806
1	341	77.182483236826	0.333443852223
1	346	77.690331031783	0.333443852223
1	351	78.206526347968	0.333443852223
1	356	79.306671592875	0.333443852223
1	361	81.689163211092	0.333443852223
1	366	83.66904894639	0.333443852223
1	373	86.023027527336	0.333443852223
1	380	86.356471379559	0.362896417512
1	383	86.689915231782	0.562190819881
1	386	87.023359084005	0.798666490686
1	393	87.899153523377	0.333443852223
1	398	88.2325973756	0.604994780752
1	405	88.566041227823	0.659024270966
1	408	88.899485080046	0.597563084898
1	411	89.232928932269	0.786767449827
1	416	91.397144626914	0.333443852223
1	421	92.871059706379	0.333443852223
1	426	98.378869200472	0.333443852223
1	431	99.414657264746	0.333443852223
1	436	99.915354956068	0.333443852223
1	443	100.592855619286	0.333443852223
1	446	100.926299471509	0.472649804772
1	451	101.315415861617	0.333443852223
1	456	102.584240236622	0.333443852223
1	461	103.322220407223	0.333443852223
1	468	103.905486444024	0.333443852223
1	473	104.238930296247	0.613126920353
1	476	104.57237414847	0.390507545951
1	481	105.286869703798	0.333443852223
1	486	107.023948030893	0.333443852223
1	491	107.644461551716	0.333443852223
1	496	108.403467444983	0.333443852223
1	501	108.78510829856	0.333443852223
1	507	109.393736422174	0.599656724357
1	512	109.728875812121	0.333443852223
1	517	110.153204693865	0.333443852223
1	522	110.914903823543	0.333443852223
1	527	111.80947994161	0.333443852223
1	532	112.689327224903	0.333443852223
1	539	114.244352458304	0.333443852223
1	542	114.577796310527	0.451937340379
1	547	115.745614649693	0.333443852223
1	552	116.60436005184	0.333443852223
1	557	117.786238372496	0.333443852223
1	562	119.362035463484	0.333443852223
1	567	119.953373430465	0.333443852223
1	572	120.799169253354	0.333443852223
1	579	122.333868330224	0.333443852223
1	584	122.667312182447	0.361073164768
1	587	123.00075603467	0.500684476622
1	592	124.09067960892	0.333443852223
1	599	124.650803403485	0.333443852223
1	602	124.984247255708	0.610432445554
1	611	125.320319328385	0.333443852223
1	614	125.653763180608	0.369841000989
1	617	125.987207032831	0.697236247697
1	622	127.918456537898	0.333443852223
1	627	128.612884068337	0.333443852223
1	634	129.371407810731	0.333443852223
1	637	129.704851662954	0.438368119253
1	644	132.059840547261	0.333443852223
1	649	132.393284399484	0.345901411276
1	652	132.726728251707	0.385886722403
1	657	133.297108253172	0.333443852223
1	662	135.075934085517	0.333443852223
1	667	135.745631651997	0.333443852223
1	674	136.443449870267	0.333443852223
1	677	136.77689372249	0.624621507043
1	682	137.150993808172	0.333443852223
1	687	138.818694679529	0.333443852223
1	694	139.833056116558	0.333443852223
1	697	140.166499968781	0.550779929967
1	702	141.904330814848	0.333443852223
1	707	142.402054561937	0.333443852223
1	712	143.019016566245	0.333443852223
1	717	144.006777635658	0.333443852223
1	722	145.475769244036	0.333443852223
1	727	146.53143938808	0.333443852223
1	732	146.897209580475	0.333443852223
1	737	147.351810798251	0.333443852223
1	742	148.030361889677	0.333443852223
1	747	148.497164230066	0.333443852223
1	752	149.207645214449	0.333443852223
1	758	149.816273338063	0.517662053511
1	763	150.783190225655	0.333443852223
1	768	152.974186368236	0.333443852223
1	775	153.77214703839	0.333443852223
1	778	154.105590890613	0.461764141184
1	783	155.141781061984	0.333443852223
1	788	159.027425349757	0.333443852223
1	793	160.051035621121	0.333443852223
1	800	164.825028388531	0.333443852223
1	807	165.158472240754	0.647197473794
1	810	165.491916092977	0.642376324755
1	813	165.8253599452	0.762657470361
1	818	166.314085556629	0.333443852223
1	823	168.269383321797	0.333443852223
1	830	169.898915080161	0.333443852223
1	833	170.232358932384	0.339692608919
1	838	172.681061869819	0.333443852223
1	847	173.258495336506	0.333443852223
1	850	173.591939188729	0.384344666633
1	853	173.925383040952	0.708765795195
1	858	176.492839129609	0.333443852223
1	867	178.825628860293	0.333443852223
1	870	179.159072712516	0.427204950731
1	875	179.492516564739	0.71409052739
1	878	179.825960416962	0.389268770732
1	885	184.104854344736	0.333443852223
1	890	184.438298196959	0.427879282223
1	895	184.771742049182	0.448248241617
1	898	185.105185901405	0.453834897578
1	905	185.695993554148	0.333443852223
1	912	186.029437406371	0.533989996287
1	915	186.362881258594	0.534074221398
1	922	186.696325110817	0.837401367813
1	927	187.02976896304	0.653673015469
1	930	187.363212815263	0.978691103865
1	935	187.696656667486	0.779674612714
1	940	188.030100519709	0.403133010531
1	943	188.363544371932	0.519877252932
1	950	189.925414966419	0.333443852223
1	955	190.258858818642	0.347160902173
1	960	190.592302670865	0.49952383412
1	963	190.925746523088	0.382036164969
1	968	191.633420365554	0.333443852223
1	973	192.170767187743	0.333443852223
1	980	192.859490892047	0.333443852223
1	985	193.19293474427	0.614251761204
1	988	193.526378596493	0.341776361204
1	993	194.935309604846	0.333443852223
1	998	195.682205757266	0.333443852223
1	1003	196.057855482522	0.333443852223
1	1009	196.666483606136	0.52347274714
1	1014	198.227273662707	0.333443852223
1	1023	199.744600956678	0.333443852223
1	1026	200.078044808901	0.530545481832
1	1029	200.411488661124	0.847830799537
1	1034	201.696327918677	0.333443852223
1	1039	205.463582202006	0.333443852223
1	1044	205.859695916928	0.333443852223
1	1049	206.502086818876	0.333443852223
1	1056	207.931836762264	0.333443852223
1	1059	208.265280614487	0.585238617676
1	1064	209.058134483566	0.333443852223
1	1069	210.169061483158	0.333443852223
1	1074	211.823758413608	0.333443852223
1	1079	212.619851996331	0.333443852223
1	1084	213.947298918726	0.333443852223
1	1089	214.297125771209	0.333443852223
1	1094	214.770269129213	0.333443852223
1	1103	215.464111985167	0.333443852223
1	1106	215.79755583739	0.645252371314
1	1109	216.130999689613	0.920271224972
1	1114	217.991623333176	0.333443852223
1	1119	219.881707063933	0.333443852223
1	1124	221.430476899326	0.333443852223
1	1131	222.363187251612	0.333443852223
1	1136	222.696631103835	0.380585778688
1	1141	223.030074956058	0.630149694834
1	1144	223.363518808281	0.444826675971
1	1151	227.695615425101	0.333443852223
1	1160	228.029059277324	0.356703312133
1	1167	228.362503129547	0.516169092234
1	1170	228.69594698177	0.764957389143
1	1175	229.029390833993	1.052576374287
1	1180	229.362834686216	1.223802320732
1	1185	229.696278538439	1.342933286742
1	1190	230.029722390662	1.002778165335
1	1193	230.363166242885	1.283587076342
1	1196	230.696610095108	1.133760652358
1	1199	231.030053947331	1.194415012117
1	1204	232.069103650402	0.333443852223
1	1211	232.590980361958	0.333443852223
1	1214	232.924424214181	0.357479299682
1	1219	233.622962447992	0.333443852223
1	1224	238.912601125093	0.333443852223
1	1229	240.622232500877	0.333443852223
1	1234	241.680895670224	0.333443852223
1	1239	242.610428087097	0.333443852223
1	1244	243.686886157934	0.333443852223
1	1249	245.258551576073	0.333443852223
1	1254	245.826546835658	0.333443852223
1	1260	246.672541067986	0.333443852223
1	1265	247.892930175389	0.333443852223
1	1272	248.28549687461	0.333443852223
1	1279	248.618940726833	0.499041307427
1	1284	248.952384579056	0.666005786151
1	1287	249.285828431279	0.908811134666
1	1290	249.619272283502	0.896015586681
1	1295	250.277672814072	0.333443852223
1	1302	251.724115041444	0.333443852223
1	1305	252.057558893667	0.349109341832
1	1310	257.48070796343	0.333443852223
1	1317	259.44265604425	0.333443852223
1	1322	259.776099896473	0.528358930964
1	1325	260.109543748696	0.58807364443
1	1330	260.514880558779	0.333443852223
1	1335	261.197939026514	0.333443852223
1	1340	261.769679984553	0.333443852223
1	1345	262.89295731267	0.333443852223
1	1352	264.516859246367	0.333443852223
1	1355	264.85030309859	0.351356955947
1	1360	266.018504290768	0.333443852223
1	1365	267.370106225917	0.333443852223
1	1374	269.451915165889	0.333443852223
1	1377	269.785359018112	0.460766901339
1	1380	270.118802870335	0.788216688452
1	1385	270.77696522222	0.333443852223
1	1390	271.737176727411	0.333443852223
1	1395	273.40895193097	0.333443852223
1	1402	277.063244725871	0.333443852223
1	1407	277.396688578094	0.428876233074
1	1414	277.730132430317	0.573488061229
1	1417	278.06357628254	0.634592396327
1	1420	278.397020134763	0.812598409474
1	1425	280.158541187389	0.333443852223
1	1430	281.153514689352	0.333443852223
1	1435	281.988151080045	0.333443852223
1	1440	282.698749192154	0.333443852223
1	1445	285.254684749075	0.333443852223
1	1450	286.540621839446	0.333443852223
1	1455	287.895513860876	0.333443852223
1	1464	289.021296815753	0.333443852223
1	1469	289.354740667976	0.43870645545
1	1472	289.688184520199	0.695966769939
1	1475	290.021628372422	0.94220619368
1	1482	291.606403731516	0.333443852223
1	1485	291.939847583739	0.346043638962
1	1490	296.468718975597	0.333443852223
1	1495	297.120524335949	0.333443852223
1	1500	299.964412581282	0.333443852223
1	1507	301.689695112035	0.333443852223
1	1511	302.298323235649	0.802957748908
1	1516	306.134957136872	0.333443852223
1	1523	307.801476382629	0.333443852223
1	1526	308.134920234852	0.354045362023
1	1533	309.238254904119	0.333443852223
1	1536	309.571698756342	0.507845455017
1	1541	313.09790678109	0.333443852223
1	1546	313.527823573936	0.333443852223
1	1551	314.789039328428	0.333443852223
1	1558	315.897718730782	0.333443852223
1	1561	316.231162583005	0.658072205159
1	1566	317.427933403125	0.333443852223
1	1573	317.864543510597	0.333443852223
1	1576	318.19798736282	0.415096149413
1	1581	318.795889799331	0.333443852223
1	1586	319.306816496728	0.333443852223
1	1591	320.356456276643	0.333443852223
1	1596	321.085014434225	0.333443852223
1	1601	322.254071639079	0.333443852223
1	1606	323.406042189129	0.333443852223
1	1611	325.626250431951	0.333443852223
1	1616	326.711979860988	0.333443852223
1	1625	327.439544292574	0.333443852223
1	1628	327.772988144797	0.460982762939
1	1631	328.10643199702	0.750320574987
1	1636	328.490355578073	0.333443852223
1	1641	331.277242965598	0.333443852223
1	1648	333.177765374875	0.333443852223
1	1651	333.511209227098	0.368483187479
1	1656	333.903060271724	0.333443852223
1	1661	335.543992835046	0.333443852223
1	1668	336.953750300689	0.333443852223
1	1671	337.287194152912	0.343999611545
1	1676	338.505508030914	0.333443852223
1	1683	338.908080441521	0.333443852223
1	1686	339.241524293744	0.444411148527
1	1691	339.599521711459	0.333443852223
1	1698	340.979646434707	0.333443852223
1	1703	341.31309028693	0.605868402622
1	1708	341.646534139153	0.375475477515
1	1715	341.979977991376	0.359730079034
1	1718	342.313421843599	0.661129120097
1	1721	342.646865695822	0.74186396448
1	1728	344.367737161484	0.333443852223
1	1733	344.701181013707	0.341267285192
1	1736	345.03462486593	0.652257113448
1	1741	346.829043881824	0.333443852223
1	1746	348.44059319165	0.333443852223
1	1753	350.30680166836	0.333443852223
1	1756	350.640245520583	0.400920604138
1	1762	351.311236673478	0.333443852223
1	1767	355.063564706418	0.333443852223
1	1774	356.669801047639	0.333443852223
1	1777	357.003244899862	0.448594233456
1	1782	357.66995982768	0.333443852223
1	1787	358.157761848766	0.333443852223
1	1792	358.505418407673	0.333443852223
1	1797	360.663942086912	0.333443852223
1	1802	361.423973022407	0.333443852223
1	1807	362.401875625525	0.333443852223
1	1812	365.878920221165	0.333443852223
1	1817	366.550404095599	0.333443852223
1	1822	367.432508675599	0.333443852223
1	1827	369.270612602808	0.333443852223
1	1832	374.574704112757	0.333443852223
1	1839	375.47980101296	0.333443852223
1	1842	375.813244865183	0.436179268283
1	1847	377.563543914773	0.333443852223
1	1854	377.920091736005	0.333443852223
1	1857	378.253535588228	0.465123204355
1	1862	379.822722349295	0.333443852223
1	1867	380.345327868004	0.333443852223
1	1872	381.999928569656	0.333443852223
1	1877	383.740348443679	0.333443852223
1	1882	388.795943923335	0.333443852223
1	1887	389.351365387172	0.333443852223
1	1892	391.182422039611	0.333443852223
1	1899	392.017209917427	0.333443852223
1	1902	392.35065376965	0.475523487364
1	1907	392.782006935233	0.333443852223
1	1912	393.397460664498	0.333443852223
1	1917	393.907234283781	0.333443852223
1	1922	395.615256162167	0.333443852223
1	1927	397.677637638586	0.333443852223
1	1932	399.535396754864	0.333443852223
1	1937	399.899595195314	0.333443852223
1	1942	401.839274719789	0.333443852223
1	1947	403.774363652596	0.333443852223
1	1952	404.730443090186	0.333443852223
1	1959	405.183098251637	0.333443852223
1	1962	405.51654210386	0.457855342678
1	1967	406.100285804705	0.333443852223
1	1972	406.882280227477	0.333443852223
1	1977	409.73724734137	0.333443852223
1	1982	410.438482721392	0.333443852223
1	1987	411.535260917475	0.333443852223
1	1992	413.000363064796	0.333443852223
1	1997	413.582862258173	0.333443852223
1	2002	414.280808999357	0.333443852223
1	2009	414.864143604876	0.333443852223
1	2013	415.47277172849	0.681765084365
1	2020	417.994966346198	0.333443852223
1	2025	418.328410198421	0.62620007082
1	2028	418.661854050644	0.650752777772
1	2033	419.800032860685	0.333443852223
1	2038	422.116137539375	0.333443852223
1	2045	422.53518708295	0.333443852223
1	2048	422.868630935173	0.391323918626
1	2057	424.084271893309	0.333443852223
1	2062	424.417715745532	0.63856114285
1	2067	424.751159597755	0.803632621637
1	2070	425.084603449978	0.809713976875
1	2073	425.418047302201	0.916325652216
1	2078	429.034191712501	0.333443852223
1	2083	429.677197662476	0.333443852223
1	2088	431.484151082188	0.333443852223
1	2093	432.427421391034	0.333443852223
1	2098	433.390495525151	0.333443852223
1	2103	434.989576378757	0.333443852223
1	2108	436.418478230281	0.333443852223
1	2113	440.542116581187	0.333443852223
1	2118	441.842651426547	0.333443852223
1	2123	444.452590675757	0.333443852223
1	2128	446.708011811465	0.333443852223
1	2135	448.985783760642	0.333443852223
1	2138	449.319227612865	0.521905557705
1	2143	449.65943574421	0.333443852223
1	2148	450.578279786419	0.333443852223
1	2153	450.960688645168	0.333443852223
1	2160	452.078836491789	0.333443852223
1	2163	452.412280344012	0.600448571499
1	2170	453.292222693873	0.333443852223
1	2173	453.625666546096	0.487697808978
1	2178	454.147710758678	0.333443852223
1	2183	454.704555361896	0.333443852223
1	2188	455.716219124224	0.333443852223
1	2193	456.497140490795	0.333443852223
1	2198	460.219020799443	0.333443852223
1	2203	461.490574089588	0.333443852223
1	2210	464.996952326709	0.333443852223
1	2213	465.330396178932	0.441902051231
1	2218	466.562923802555	0.333443852223
1	2223	467.757372331352	0.333443852223
1	2228	468.548305419896	0.333443852223
1	2235	469.297355704761	0.333443852223
1	2238	469.630799556984	0.459917829286
1	2243	473.61702512912	0.333443852223
1	2248	474.807764026606	0.333443852223
1	2253	475.169464487342	0.333443852223
1	2258	475.587688736945	0.333443852223
1	2264	477.506713272726	0.333443852223
1	2269	479.597903800317	0.333443852223
1	2274	480.231945967703	0.333443852223
1	2279	482.230503897132	0.333443852223
1	2286	483.036843674813	0.333443852223
1	2289	483.370287527036	0.585140994074
1	2294	484.882492704673	0.333443852223
1	2299	485.573242639273	0.333443852223
1	2306	486.445440409667	0.333443852223
1	2311	486.77888426189	0.652881099565
1	2314	487.112328114113	0.571111545025
1	2319	488.06526601378	0.333443852223
1	2324	491.75640504555	0.333443852223
1	2329	492.73714118492	0.333443852223
1	2334	493.433542244583	0.333443852223
1	2339	494.425244664954	0.333443852223
1	2346	495.017626067821	0.333443852223
1	2349	495.351069920044	0.579846859637
1	2354	496.135843638106	0.333443852223
1	2359	497.629528461061	0.333443852223
1	2364	498.290096711362	0.333443852223
1	2371	499.4811599216	0.333443852223
1	2374	499.814603773823	0.504419106298
1	2379	500.922361355436	0.333443852223
1	2384	502.426428606901	0.333443852223
1	2389	503.358763513824	0.333443852223
1	2396	504.037527054892	0.333443852223
1	2399	504.370970907115	0.501458392996
1	2404	504.907632085533	0.333443852223
1	2411	505.907692578424	0.333443852223
1	2414	506.241136430647	0.367293880648
1	2419	506.646416100795	0.333443852223
1	2424	507.877732805272	0.333443852223
1	2435	509.658939619072	0.333443852223
1	2442	509.992383471295	0.663425114722
1	2445	510.325827323518	0.748934988803
1	2448	510.659271175741	1.042508496699
1	2453	510.992715027964	1.07686245667
1	2460	511.326158880187	1.408056671044
1	2465	511.65960273241	0.739132227181
1	2470	511.993046584633	0.983354887185
1	2473	512.326490436856	1.1919559846
1	2478	512.659934289079	1.008667091287
1	2481	512.993378141302	1.292321451502
1	2486	513.326821993525	0.951178937178
1	2489	513.660265845748	0.541732540943
1	2494	517.325635532693	0.333443852223
1	2501	518.549682709054	0.333443852223
1	2504	518.883126561277	0.586787171824
1	2511	519.338257452256	0.333443852223
1	2515	519.94688557587	0.708668285831
1	2520	520.301613358251	0.333443852223
1	2527	521.518024202721	0.333443852223
1	2530	521.851468054944	0.635572290412
1	2535	523.0291432151	0.333443852223
1	2540	523.52603391536	0.333443852223
1	2545	528.652782552247	0.333443852223
1	2550	530.186777593072	0.333443852223
1	2555	531.12734153684	0.333443852223
1	2560	534.401876213576	0.333443852223
1	2565	535.62310535109	0.333443852223
1	2570	535.998717657992	0.333443852223
1	2575	537.470961772203	0.333443852223
1	2582	539.282656017501	0.333443852223
1	2585	539.616099869724	0.468751276216
1	2590	540.721011051131	0.333443852223
1	2597	542.089810139045	0.333443852223
1	2600	542.423253991268	0.413157818727
1	2609	545.52217186308	0.333443852223
1	2612	545.855615715303	0.503158889812
1	2615	546.189059567526	0.778417332253
1	2620	546.532007334473	0.333443852223
1	2631	549.761267944848	0.333443852223
1	2634	550.094711797071	0.608427641045
1	2637	550.428155649294	0.932621429738
1	2640	550.761599501517	1.180488771102
1	2645	551.140008223631	0.333443852223
1	2650	552.092643524028	0.333443852223
1	2659	554.368821884697	0.333443852223
1	2662	554.70226573692	0.612819903492
1	2665	555.035709589143	0.894788436097
1	2670	555.803140334042	0.333443852223
1	2675	561.134212004022	0.333443852223
1	2680	562.224751709115	0.333443852223
1	2687	565.054082089596	0.333443852223
1	2692	565.387525941819	0.60896776841
1	2697	565.720969794042	0.42041221702
1	2702	566.054413646265	0.436089811275
1	2705	566.387857498488	0.445235866502
1	2712	567.473535529986	0.333443852223
1	2715	567.806979382209	0.634242197609
1	2720	569.282718400222	0.333443852223
1	2725	570.081491559744	0.333443852223
1	2730	570.949355215313	0.333443852223
1	2735	574.043950029974	0.333443852223
1	2742	579.150677513072	0.333443852223
1	2745	579.484121365295	0.375753036018
1	2750	580.187435985787	0.333443852223
1	2755	584.138170023644	0.333443852223
1	2760	584.900507359483	0.333443852223
1	2766	585.606713434727	0.333443852223
1	2771	587.418194248124	0.333443852223
1	2776	589.709270458138	0.333443852223
1	2781	591.26879278131	0.333443852223
1	2786	592.513336938861	0.333443852223
1	2791	593.581381609603	0.333443852223
1	2796	594.172449536183	0.333443852223
1	2803	594.627873755565	0.333443852223
1	2806	594.961317607788	0.657175535302
1	2811	595.432052409252	0.333443852223
1	2816	596.732192734413	0.333443852223
1	2821	597.545062817481	0.333443852223
1	2826	597.94993937059	0.333443852223
1	2831	598.717234560803	0.333443852223
1	2836	599.478173273773	0.333443852223
1	2843	599.946085368387	0.333443852223
1	2848	600.27952922061	0.479157541233
1	2853	600.612973072833	0.478408926299
1	2856	600.946416925056	0.66627469596
1	2861	602.659412507258	0.333443852223
1	2866	604.399378159611	0.333443852223
1	2873	605.975678933178	0.333443852223
1	2876	606.309122785401	0.625119441426
1	2881	607.329921116064	0.333443852223
1	2886	608.279606325981	0.333443852223
1	2891	608.624307927318	0.333443852223
1	2896	609.530138099856	0.333443852223
1	2901	611.15695367776	0.333443852223
1	2908	611.757442774474	0.333443852223
1	2911	612.090886626697	0.396218488492
1	2916	612.614312426114	0.333443852223
1	2921	613.208028090854	0.333443852223
1	2926	613.901200065391	0.333443852223
1	2933	615.219416257948	0.333443852223
1	2936	615.552860110171	0.628979498275
1	2941	618.490837721076	0.333443852223
1	2946	619.999387283521	0.333443852223
1	2951	620.44489284031	0.333443852223
1	2958	623.79300938858	0.333443852223
1	2961	624.126453240803	0.451954908286
1	2966	625.251677500463	0.333443852223
1	2973	626.776217710823	0.333443852223
1	2976	627.109661563046	0.543485988033
1	2981	628.852928848377	0.333443852223
1	2986	629.217803759105	0.333443852223
1	2993	631.008272216123	0.333443852223
1	2996	631.341716068346	0.483959943873
1	3001	632.500617154514	0.333443852223
1	3008	633.023294898959	0.333443852223
1	3011	633.356738751182	0.437022353325
1	3017	633.965366874796	0.381099128405
1	3022	635.888401727221	0.333443852223
1	3029	637.048655018635	0.333443852223
1	3034	637.382098870858	0.477745673137
1	3041	637.715542723081	0.364061338605
1	3046	638.048986575304	0.492472922654
1	3051	638.382430427527	0.799292757025
1	3054	638.71587427975	0.927018522011
1	3061	639.049318131973	0.98621115454
1	3064	639.382761984196	0.660152208948
1	3067	639.716205836419	0.902526529686
1	3074	640.240948703544	0.333443852223
1	3079	640.574392555767	0.392773545497
1	3082	640.90783640799	0.479524713469
1	3087	642.456446943138	0.333443852223
1	3092	644.590461049758	0.333443852223
1	3097	645.162010956129	0.333443852223
1	3104	649.837379224786	0.333443852223
1	3109	650.170823077009	0.603976130106
1	3112	650.504266929232	0.350361312681
1	3119	651.359764705635	0.333443852223
1	3122	651.693208557858	0.556591032111
1	3127	652.217433873127	0.333443852223
1	3132	652.702445075107	0.333443852223
1	3137	656.135901339456	0.333443852223
1	3142	657.654072573265	0.333443852223
1	3149	658.03948264728	0.333443852223
1	3156	658.372926499503	0.454960412987
1	3159	658.706370351726	0.592034389688
1	3162	659.039814203949	0.851913121238
1	3167	659.942994704532	0.333443852223
1	3174	661.469600943843	0.333443852223
1	3179	661.803044796066	0.485538143703
1	3182	662.136488648289	0.532086564182
1	3187	662.994032521379	0.333443852223
1	3192	667.705208052633	0.333443852223
1	3199	668.279616336487	0.333443852223
1	3202	668.61306018871	0.429011562767
1	3207	669.166078439187	0.333443852223
1	3212	670.219532237945	0.333443852223
1	3217	671.480472125866	0.333443852223
1	3224	672.070236863029	0.333443852223
1	3227	672.403680715252	0.356809460716
1	3232	673.580104772484	0.333443852223
1	3239	674.569682987898	0.333443852223
1	3244	674.903126840121	0.343020534485
1	3247	675.236570692344	0.656018740742
1	3252	676.943430800966	0.333443852223
1	3257	678.343865614741	0.333443852223
1	3262	680.379252936877	0.333443852223
1	3268	681.012422805097	0.333443852223
1	3273	682.43473129799	0.333443852223
1	3278	683.640838206936	0.333443852223
1	3287	685.141702684466	0.333443852223
1	3290	685.475146536689	0.608964652403
1	3293	685.808590388912	0.746403900513
1	3298	689.582226390091	0.333443852223
1	3307	690.075918107409	0.333443852223
1	3310	690.409361959632	0.511812541641
1	3313	690.742805811855	0.764488428541
1	3318	695.158654547084	0.333443852223
1	3323	696.877561485586	0.333443852223
1	3328	697.553687575582	0.333443852223
1	3335	699.362442348813	0.333443852223
1	3338	699.695886201036	0.567926221246
1	3343	700.03166760914	0.333443852223
1	3352	700.412527995478	0.333443852223
1	3357	700.745971847701	0.46339791423
1	3360	701.079415699924	0.732775165477
1	3363	701.412859552147	0.767862883078
1	3368	701.905372042027	0.333443852223
1	3373	702.667231948481	0.333443852223
1	3378	703.058593785972	0.333443852223
1	3385	705.284322910265	0.333443852223
1	3388	705.617766762488	0.63460619649
1	3393	706.685132865518	0.333443852223
1	3398	707.041187320806	0.333443852223
1	3403	708.743335836636	0.333443852223
1	3408	710.663574652471	0.333443852223
1	3413	711.372606015502	0.333443852223
1	3418	712.180983067716	0.333443852223
1	3423	713.632137367019	0.333443852223
1	3428	714.220225797137	0.333443852223
1	3433	716.611974586768	0.333443852223
1	3438	717.180055506227	0.333443852223
1	3445	717.539243820127	0.333443852223
1	3450	717.87268767235	0.50735898792
1	3453	718.206131524573	0.334193917123
1	3458	718.623258338258	0.333443852223
1	3463	721.605784084702	0.333443852223
1	3468	724.005514939165	0.333443852223
1	3475	724.698351897733	0.333443852223
1	3478	725.031795749956	0.56231334683
1	3483	725.462515921486	0.333443852223
1	3490	726.013755227481	0.333443852223
1	3493	726.347199079704	0.642707447275
1	3498	728.893596298267	0.333443852223
1	3505	731.586939509077	0.333443852223
1	3508	731.9203833613	0.622174839987
1	3515	732.625474910906	0.333443852223
1	3521	733.23410303452	0.6755011658
1	3528	733.567546886743	0.642254975964
1	3533	733.900990738966	0.454420267321
1	3536	734.234434591189	0.708944672804
1	3539	734.567878443412	0.754688729039
1	3546	735.22371262633	0.333443852223
1	3551	735.557156478553	0.643466264301
1	3554	735.890600330776	0.557776163661
1	3559	737.149292271463	0.333443852223
1	3566	737.533278187176	0.333443852223
1	3571	737.866722039399	0.596913289817
1	3574	738.200165891622	0.509400840065
1	3583	738.914529828986	0.333443852223
1	3586	739.247973681209	0.461354625601
1	3591	739.581417533432	0.677793999455
1	3594	739.914861385655	0.346971823076
1	3599	742.387219593303	0.333443852223
1	3604	744.439144900566	0.333443852223
1	3609	744.946757630073	0.333443852223
1	3614	747.014347962448	0.333443852223
1	3621	747.402816426476	0.333443852223
1	3626	747.736260278699	0.360662981284
1	3633	748.069704130922	0.432503544964
1	3636	748.403147983145	0.482078982479
1	3639	748.736591835368	0.800089956506
1	3644	749.252475786625	0.333443852223
1	3651	750.405170161979	0.333443852223
1	3654	750.738614014202	0.526666503935
1	3659	752.692920644241	0.333443852223
1	3666	753.638698060903	0.333443852223
1	3671	753.972141913126	0.640923885461
1	3674	754.305585765349	0.654555426978
1	3679	754.88325601137	0.333443852223
1	3684	756.763048147076	0.333443852223
1	3689	758.39209508717	0.333443852223
1	3696	759.449651286667	0.333443852223
1	3699	759.78309513889	0.606006042635
1	3704	760.371874197088	0.333443852223
1	3709	762.048840239746	0.333443852223
1	3714	764.596036239408	0.333443852223
1	3719	766.512770728156	0.333443852223
1	3726	767.296406983356	0.333443852223
1	3729	767.629850835579	0.586403750813
1	3734	767.996738579191	0.333443852223
1	3739	769.450085034335	0.333443852223
1	3744	774.365528100306	0.333443852223
1	3749	775.380387716357	0.333443852223
1	3754	778.237182593768	0.333443852223
1	3759	781.458244413263	0.333443852223
1	3766	782.373152325362	0.333443852223
1	3772	782.981780448976	0.829036739884
1	3775	783.315224301199	0.75955844009
1	3780	784.736151610125	0.333443852223
1	3785	785.577179426662	0.333443852223
1	3790	786.442306104741	0.333443852223
1	3799	789.083675739559	0.333443852223
1	3802	789.417119591782	0.61444967551
1	3805	789.750563444005	0.842390083065
1	3810	790.088774259187	0.333443852223
1	3819	790.901876665488	0.333443852223
1	3822	791.235320517711	0.410833510478
1	3827	791.568764369934	0.734098209809
1	3830	791.902208222157	0.536667587679
1	3835	792.623186964027	0.333443852223
1	3840	793.246496219025	0.333443852223
1	3847	793.902208268737	0.333443852223
1	3850	794.23565212096	0.360511228766
1	3857	797.886295741236	0.333443852223
1	3860	798.219739593459	0.47942334109
1	3865	801.731340101143	0.333443852223
1	3870	803.404911075614	0.333443852223
1	3875	804.575495431034	0.333443852223
1	3880	804.960042587487	0.333443852223
1	3885	806.931188098797	0.333443852223
1	3890	807.373412131837	0.333443852223
1	3895	813.497793051392	0.333443852223
1	3900	813.894110965187	0.333443852223
1	3905	815.24195350767	0.333443852223
1	3910	816.243053509624	0.333443852223
1	3915	818.112476293588	0.333443852223
1	3920	818.561506854759	0.333443852223
1	3927	819.049494754323	0.333443852223
1	3930	819.382938606546	0.42223363834
1	3935	822.498859492898	0.333443852223
1	3940	823.514494406229	0.333443852223
1	3947	825.623959196836	0.333443852223
1	3952	825.957403049059	0.64512749349
1	3957	826.290846901282	0.493690915685
1	3960	826.624290753505	0.370031645037
1	3965	827.075005269725	0.333443852223
1	3970	828.134966214383	0.333443852223
1	3975	831.334540857853	0.333443852223
1	3980	832.770113096874	0.333443852223
1	3985	833.668902828651	0.333443852223
1	3990	834.585969050628	0.333443852223
1	3997	836.729106188253	0.333443852223
1	4000	837.062550040476	0.403206136102
1	4007	838.703018347465	0.333443852223
1	4010	839.036462199688	0.663794762551
1	4015	839.771522843954	0.333443852223
1	4021	840.61813470071	0.333443852223
1	4026	841.276197701003	0.333443852223
1	4031	842.28725827326	0.333443852223
1	4036	842.753061742745	0.333443852223
1	4041	845.297920596643	0.333443852223
1	4046	845.693205138726	0.333443852223
1	4051	846.459406943583	0.333443852223
1	4056	847.561228934019	0.333443852223
1	4065	849.72597471982	0.333443852223
1	4072	850.059418572043	0.634275193539
1	4075	850.392862424266	0.732049841356
1	4078	850.726306276489	0.865640174747
1	4083	851.059750128712	1.071913988062
1	4088	851.393193980935	0.506851851284
1	4091	851.726637833158	0.485805448685
1	4098	853.160138357645	0.333443852223
1	4101	853.493582209868	0.446301724692
1	4106	854.592963426602	0.333443852223
1	4111	857.69650724156	0.333443852223
1	4116	858.270668838978	0.333443852223
1	4123	858.984948824957	0.333443852223
1	4126	859.31839267718	0.507095738414
1	4131	860.844457484099	0.333443852223
1	4136	861.421062975876	0.333443852223
1	4143	861.889701461109	0.333443852223
1	4148	862.223145313332	0.408073105701
1	4151	862.556589165555	0.575597301336
1	4158	864.069156218118	0.333443852223
1	4161	864.402600070341	0.492873315402
1	4166	865.946601220715	0.333443852223
1	4171	866.503257940974	0.333443852223
1	4176	870.096349744027	0.333443852223
1	4181	870.642559464558	0.333443852223
1	4188	871.05081954838	0.333443852223
1	4191	871.384263400603	0.612609643228
1	4196	873.339487318297	0.333443852223
1	4201	874.997691755652	0.333443852223
1	4206	875.501240058232	0.333443852223
1	4211	876.457270980745	0.333443852223
1	4216	877.237489571456	0.333443852223
1	4223	878.63318625512	0.333443852223
1	4226	878.966630107343	0.35831540478
1	4231	879.794908111651	0.333443852223
1	4236	880.646690846747	0.333443852223
1	4241	881.419369390871	0.333443852223
1	4246	882.145103734086	0.333443852223
1	4253	883.076823413036	0.333443852223
1	4256	883.410267265259	0.547974745875
1	4261	884.7599320077	0.333443852223
1	4266	885.317367353077	0.333443852223
1	4272	885.925995476691	0.386628163544
1	4277	889.212677301537	0.333443852223
1	4286	889.920019344826	0.333443852223
1	4289	890.253463197049	0.509602259323
1	4292	890.586907049272	0.842108428601
1	4297	891.265313869137	0.333443852223
1	4302	892.525652032148	0.333443852223
1	4307	892.903626891333	0.333443852223
1	4312	894.109517587654	0.333443852223
1	4317	894.659123405207	0.333443852223
1	4322	897.469872229569	0.333443852223
1	4327	899.500416421321	0.333443852223
1	4332	901.005505267522	0.333443852223
1	4337	901.49492560608	0.333443852223
1	4342	902.623554322814	0.333443852223
1	4347	903.970883509949	0.333443852223
1	4352	904.375209177993	0.333443852223
1	4361	906.232186574659	0.333443852223
1	4366	906.565630426882	0.620295560487
1	4371	906.899074279105	0.897482866771
1	4376	907.232518131328	0.921389477357
1	4379	907.565961983551	0.814994536186
1	4382	907.899405835774	0.803747492341
1	4389	909.03752703652	0.333443852223
1	4392	909.370970888743	0.666584402129
1	4397	909.911929708077	0.333443852223
1	4402	910.620269033063	0.333443852223
1	4407	911.590699083722	0.333443852223
1	4412	912.622816568138	0.333443852223
1	4419	913.573244299959	0.333443852223
1	4426	913.906688152182	0.386156106394
1	4429	914.240132004405	0.663917533969
1	4434	914.573575856628	0.812518066169
1	4437	914.907019708851	0.630620313531
1	4442	915.818468929073	0.333443852223
1	4451	916.410154395063	0.333443852223
1	4458	916.743598247286	0.423519643522
1	4461	917.077042099509	0.736399751165
1	4464	917.410485951732	0.750287852779
1	4467	917.743929803955	1.069494236591
1	4476	918.466722986579	0.333443852223
1	4483	918.800166838802	0.447426711599
1	4486	919.133610691025	0.717982096322
1	4491	919.467054543248	0.88967399588
1	4496	919.800498395471	1.131344654763
1	4499	920.133942247694	0.716804445068
1	4502	920.467386099917	0.851486267547
1	4507	924.142175272748	0.333443852223
1	4514	925.825552560397	0.333443852223
1	4517	926.15899641262	0.539008560432
1	4523	927.452801749208	0.333443852223
1	4528	929.587923071503	0.333443852223
1	4533	931.435306547445	0.333443852223
1	4538	934.936441577492	0.333443852223
1	4543	936.545701701351	0.333443852223
1	4548	937.47476115721	0.333443852223
1	4553	938.204864625123	0.333443852223
1	4558	938.987348210803	0.333443852223
1	4563	941.101011002378	0.333443852223
1	4568	941.61414213269	0.333443852223
1	4573	942.941767167671	0.333443852223
1	4580	943.760470175316	0.333443852223
1	4583	944.093914027539	0.581971949107
1	4588	945.02518853962	0.333443852223
1	4593	945.856203592479	0.333443852223
1	4598	946.204707515186	0.333443852223
1	4603	948.160473323719	0.333443852223
1	4608	948.593879857623	0.333443852223
1	4613	949.058996212143	0.333443852223
1	4618	949.683987794481	0.333443852223
1	4623	951.479143793936	0.333443852223
1	4628	952.833148253054	0.333443852223
1	4635	953.447705822391	0.333443852223
1	4642	953.781149674614	0.389182922053
1	4645	954.114593526837	0.573270645645
1	4648	954.44803737906	0.800507098206
1	4655	955.347338417575	0.333443852223
1	4660	955.680782269798	0.447001928873
1	4669	956.014226122021	0.632286239581
1	4672	956.347669974244	0.627491808
1	4677	956.681113826467	0.830108160151
1	4680	957.01455767869	1.066046220968
1	4683	957.348001530913	0.755205119767
1	4688	959.355820011098	0.333443852223
1	4693	960.100807147583	0.333443852223
1	4698	961.181088666786	0.333443852223
1	4705	961.673873005398	0.333443852223
1	4712	962.007316857621	0.535721286821
1	4715	962.340760709844	0.455132120867
1	4718	962.674204562067	0.710984148217
1	4723	963.869105780331	0.333443852223
1	4728	964.639456018122	0.333443852223
1	4733	965.070937156687	0.333443852223
1	4738	967.298748172615	0.333443852223
1	4743	968.319560836843	0.333443852223
1	4748	969.591991699749	0.333443852223
1	4753	970.066516220506	0.333443852223
1	4758	971.003213551052	0.333443852223
1	4763	972.408924414855	0.333443852223
1	4768	974.15320940204	0.333443852223
1	4774	974.833567595962	0.333443852223
1	4783	975.787675344272	0.333443852223
1	4788	976.121119196495	0.644850013195
1	4793	976.454563048718	0.847171164711
1	4796	976.788006900941	0.957173468489
1	4803	977.121450753164	0.971971250861
1	4808	977.454894605387	0.441010399736
1	4811	977.78833845761	0.717089939193
1	4814	978.121782309833	0.9942335925
1	4821	978.494690018556	0.333443852223
1	4826	978.828133870779	0.502598098103
1	4829	979.161577723002	0.664946172299
1	4834	981.008515033505	0.333443852223
1	4839	982.629264275437	0.333443852223
1	4844	984.044298336366	0.333443852223
1	4849	985.186125207924	0.333443852223
1	4854	985.951498611708	0.333443852223
1	4863	986.297877482743	0.333443852223
1	4866	986.631321334966	0.600020081418
1	4869	986.964765187189	0.781598000767
1	4874	987.325466025022	0.333443852223
1	4881	988.021903717793	0.333443852223
1	4886	988.355347570016	0.604658626345
1	4889	988.688791422239	0.407467334973
1	4896	989.743165293719	0.333443852223
1	4899	990.076609145942	0.439670914687
1	4904	990.756275439566	0.333443852223
1	4909	992.167336684376	0.333443852223
1	4914	993.721401052652	0.333443852223
1	4919	994.507281422367	0.333443852223
1	4924	995.044018525231	0.333443852223
1	4929	996.188221869341	0.333443852223
1	4934	999.175619511003	0.333443852223
1	4939	999.938588280086	0.333443852223
2	5	1.849468204771	0
2	12	3.480612082147	0
2	15	3.81405593437	0.253896473104
2	20	5.004674658787	0
2	25	6.70526931501	0
2	32	7.1186282989	0
2	35	7.452072151123	0.0910275324
2	42	8.724943719914	0
2	45	9.058387572137	0.137227328723
2	50	11.614025947007	0
2	55	13.872548896076	0
2	60	16.351133323374	0
2	67	16.708130857035	0
2	70	17.041574709258	0.138970007045
2	75	18.652678288046	0
2	80	19.633346598496	0
2	85	20.884558062517	0
2	90	23.606875282675	0
2	95	23.961267861593	0
2	100	24.430340761342	0
2	105	25.034889790682	0
2	110	25.819145241247	0
2	117	26.900310444574	0
2	122	27.233754296797	0.024566102872
2	127	27.56719814902	0.313731538677
2	130	27.900642001243	0.118407526986
2	135	29.327948603826	0
2	142	29.959736374965	0
2	145	30.293180227188	0.008758905631
2	150	30.7023227829	0
2	155	32.585997919395	0
2	162	34.018602705344	0
2	165	34.352046557567	0.217342906428
2	170	34.838039351748	0
2	177	37.286433688132	0
2	180	37.619877540355	0.114607649232
2	185	39.573752337793	0
2	190	40.054806868535	0
2	195	40.899665334401	0
2	200	41.89367754948	0
2	205	43.135462019935	0
2	210	44.560977798884	0
2	215	45.405854402826	0
2	220	46.820644183599	0
2	227	48.689812705367	0
2	230	49.02325655759	0.127174403929
2	235	51.053025993043	0
2	240	52.641631617761	0
2	245	57.544058666181	0
2	250	58.420356532244	0
2	258	59.349741218613	0
2	261	59.683185070836	0.331953615083
2	266	60.440770334082	0
2	271	61.389319841636	0
2	276	61.987635709665	0
2	281	62.370704704977	0
2	286	63.322656875119	0
2	291	63.857137166139	0
2	296	64.6292587387	0
2	301	69.079881954901	0
2	306	70.620178919538	0
2	313	72.66194352713	0
2	316	72.995387379353	0.146483646235
2	321	73.520622053805	0
2	326	73.924045592542	0
2	333	75.892001066611	0
2	336	76.225444918834	0.268244419583
2	341	77.182483236826	0
2	346	77.690331031783	0
2	351	78.206526347968	0
2	356	79.306671592875	0
2	361	81.689163211092	0
2	366	83.66904894639	0
2	373	86.023027527336	0
2	380	86.356471379559	0.029452565289
2	383	86.689915231782	0.228746967658
2	386	87.023359084005	0.465222638463
2	393	87.899153523377	0
2	398	88.2325973756	0.271550928529
2	405	88.566041227823	0.325580418743
2	408	88.899485080046	0.264119232675
2	411	89.232928932269	0.453323597604
2	416	91.397144626914	0
2	421	92.871059706379	0
2	426	98.378869200472	0
2	431	99.414657264746	0
2	436	99.915354956068	0
2	443	100.592855619286	0
2	446	100.926299471509	0.139205952549
2	451	101.315415861617	0
2	456	102.584240236622	0
2	461	103.322220407223	0
2	468	103.905486444024	0
2	473	104.238930296247	0.27968306813
2	476	104.57237414847	0.057063693728
2	481	105.286869703798	0
2	486	107.023948030893	0
2	491	107.644461551716	0
2	496	108.403467444983	0
2	501	108.78510829856	0
2	507	109.393736422174	0.266212872134
2	512	109.728875812121	0
2	517	110.153204693865	0
2	522	110.914903823543	0
2	527	111.80947994161	0
2	532	112.689327224903	0
2	539	114.244352458304	0
2	542	114.577796310527	0.118493488156
2	547	115.745614649693	0
2	552	116.60436005184	0
2	557	117.786238372496	0
2	562	119.362035463484	0
2	567	119.953373430465	0
2	572	120.799169253354	0
2	579	122.333868330224	0
2	584	122.667312182447	0.027629312545
2	587	123.00075603467	0.167240624399
2	592	124.09067960892	0
2	599	124.650803403485	0
2	602	124.984247255708	0.276988593331
2	611	125.320319328385	0
2	614	125.653763180608	0.036397148766
2	617	125.987207032831	0.363792395474
2	622	127.918456537898	0
2	627	128.612884068337	0
2	634	129.371407810731	0
2	637	129.704851662954	0.10492426703
2	644	132.059840547261	0
2	649	132.393284399484	0.012457559053
2	652	132.726728251707	0.05244287018
2	657	133.297108253172	0
2	662	135.075934085517	0
2	667	135.745631651997	0
2	674	136.443449870267	0
2	677	136.77689372249	0.29117765482
2	682	137.150993808172	0
2	687	138.818694679529	0
2	694	139.833056116558	0
2	697	140.166499968781	0.217336077744
2	702	141.904330814848	0
2	707	142.402054561937	0
2	712	143.019016566245	0
2	717	144.006777635658	0
2	722	145.475769244036	0
2	727	146.53143938808	0
2	732	146.897209580475	0
2	737	147.351810798251	0
2	742	148.030361889677	0
2	747	148.497164230066	0
2	752	149.207645214449	0
2	758	149.816273338063	0.184218201288
2	763	150.783190225655	0
2	768	152.974186368236	0
2	775	153.77214703839	0
2	778	154.105590890613	0.128320288961
2	783	155.141781061984	0
2	788	159.027425349757	0
2	793	160.051035621121	0
2	800	164.825028388531	0
2	807	165.158472240754	0.313753621571
2	810	165.491916092977	0.308932472532
2	813	165.8253599452	0.429213618138
2	818	166.314085556629	0
2	823	168.269383321797	0
2	830	169.898915080161	0
2	833	170.232358932384	0.006248756696
2	838	172.681061869819	0
2	847	173.258495336506	0
2	850	173.591939188729	0.05090081441
2	853	173.925383040952	0.375321942972
2	858	176.492839129609	0
2	867	178.825628860293	0
2	870	179.159072712516	0.093761098508
2	875	179.492516564739	0.380646675167
2	878	179.825960416962	0.055824918509
2	885	184.104854344736	0
2	890	184.438298196959	0.09443543
2	895	184.771742049182	0.114804389394
2	898	185.105185901405	0.120391045355
2	905	185.695993554148	0
2	912	186.029437406371	0.200546144064
2	915	186.362881258594	0.200630369175
2	922	186.696325110817	0.50395751559
2	927	187.02976896304	0.320229163246
2	930	187.363212815263	0.645247251642
2	935	187.696656667486	0.446230760491
2	940	188.030100519709	0.069689158308
2	943	188.363544371932	0.186433400709
2	950	189.925414966419	0
2	955	190.258858818642	0.01371704995
2	960	190.592302670865	0.166079981897
2	963	190.925746523088	0.048592312746
2	968	191.633420365554	0
2	973	192.170767187743	0
2	980	192.859490892047	0
2	985	193.19293474427	0.280807908981
2	988	193.526378596493	0.008332508981
2	993	194.935309604846	0
2	998	195.682205757266	0
2	1003	196.057855482522	0
2	1009	196.666483606136	0.190028894917
2	1014	198.227273662707	0
2	1023	199.744600956678	0
2	1026	200.078044808901	0.197101629609
2	1029	200.411488661124	0.514386947314
2	1034	201.696327918677	0
2	1039	205.463582202006	0
2	1044	205.859695916928	0
2	1049	206.502086818876	0
2	1056	207.931836762264	0
2	1059	208.265280614487	0.251794765453
2	1064	209.058134483566	0
2	1069	210.169061483158	0
2	1074	211.823758413608	0
2	1079	212.619851996331	0
2	1084	213.947298918726	0
2	1089	214.297125771209	0
2	1094	214.770269129213	0
2	1103	215.464111985167	0
2	1106	215.79755583739	0.311808519091
2	1109	216.130999689613	0.586827372749
2	1114	217.991623333176	0
2	1119	219.881707063933	0
2	1124	221.430476899326	0
2	1131	222.363187251612	0
2	1136	222.696631103835	0.047141926465
2	1141	223.030074956058	0.296705842611
2	1144	223.363518808281	0.111382823748
2	1151	227.695615425101	0
2	1160	228.029059277324	0.02325945991
2	1167	228.362503129547	0.182725240011
2	1170	228.69594698177	0.43151353692
2	1175	229.029390833993	0.719132522064
2	1180	229.362834686216	0.890358468509
2	1185	229.696278538439	1.009489434519
2	1190	230.029722390662	0.669334313112
2	1193	230.363166242885	0.950143224119
2	1196	230.696610095108	0.800316800135
2	1199	231.030053947331	0.860971159894
2	1204	232.069103650402	0
2	1211	232.590980361958	0
2	1214	232.924424214181	0.024035447459
2	1219	233.622962447992	0
2	1224	238.912601125093	0
2	1229	240.622232500877	0
2	1234	241.680895670224	0
2	1239	242.610428087097	0
2	1244	243.686886157934	0
2	1249	245.258551576073	0
2	1254	245.826546835658	0
2	1260	246.672541067986	0
2	1265	247.892930175389	0
2	1272	248.28549687461	0
2	1279	248.618940726833	0.165597455204
2	1284	248.952384579056	0.332561933928
2	1287	249.285828431279	0.575367282443
2	1290	249.619272283502	0.562571734458
2	1295	250.277672814072	0
2	1302	251.724115041444	0
2	1305	252.057558893667	0.015665489609
2	1310	257.48070796343	0
2	1317	259.44265604425	0
2	1322	259.776099896473	0.194915078741
2	1325	260.109543748696	0.254629792207
2	1330	260.514880558779	0
2	1335	261.197939026514	0
2	1340	261.769679984553	0
2	1345	262.89295731267	0
2	1352	264.516859246367	0
2	1355	264.85030309859	0.017913103724
2	1360	266.018504290768	0
2	1365	267.370106225917	0
2	1374	269.451915165889	0
2	1377	269.785359018112	0.127323049116
2	1380	270.118802870335	0.454772836229
2	1385	270.77696522222	0
2	1390	271.737176727411	0
2	1395	273.40895193097	0
2	1402	277.063244725871	0
2	1407	277.396688578094	0.095432380851
2	1414	277.730132430317	0.240044209006
2	1417	278.06357628254	0.301148544104
2	1420	278.397020134763	0.479154557251
2	1425	280.158541187389	0
2	1430	281.153514689352	0
2	1435	281.988151080045	0
2	1440	282.698749192154	0
2	1445	285.254684749075	0
2	1450	286.540621839446	0
2	1455	287.895513860876	0
2	1464	289.021296815753	0
2	1469	289.354740667976	0.105262603227
2	1472	289.688184520199	0.362522917716
2	1475	290.021628372422	0.608762341457
2	1482	291.606403731516	0
2	1485	291.939847583739	0.012599786739
2	1490	296.468718975597	0
2	1495	297.120524335949	0
2	1500	299.964412581282	0
2	1507	301.689695112035	0
2	1511	302.298323235649	0.469513896685
2	1516	306.134957136872	0
2	1523	307.801476382629	0
2	1526	308.134920234852	0.0206015098
2	1533	309.238254904119	0
2	1536	309.571698756342	0.174401602794
2	1541	313.09790678109	0
2	1546	313.527823573936	0
2	1551	314.789039328428	0
2	1558	315.897718730782	0
2	1561	316.231162583005	0.324628352936
2	1566	317.427933403125	0
2	1573	317.864543510597	0
2	1576	318.19798736282	0.08165229719
2	1581	318.795889799331	0
2	1586	319.306816496728	0
2	1591	320.356456276643	0
2	1596	321.085014434225	0
2	1601	322.254071639079	0
2	1606	323.406042189129	0
2	1611	325.626250431951	0
2	1616	326.711979860988	0
2	1625	327.439544292574	0
2	1628	327.772988144797	0.127538910716
2	1631	328.10643199702	0.416876722764
2	1636	328.490355578073	0
2	1641	331.277242965598	0
2	1648	333.177765374875	0
2	1651	333.511209227098	0.035039335256
2	1656	333.903060271724	0
2	1661	335.543992835046	0
2	1668	336.953750300689	0
2	1671	337.287194152912	0.010555759322
2	1676	338.505508030914	0
2	1683	338.908080441521	0
2	1686	339.241524293744	0.110967296304
2	1691	339.599521711459	0
2	1698	340.979646434707	0
2	1703	341.31309028693	0.272424550399
2	1708	341.646534139153	0.042031625292
2	1715	341.979977991376	0.026286226811
2	1718	342.313421843599	0.327685267874
2	1721	342.646865695822	0.408420112257
2	1728	344.367737161484	0
2	1733	344.701181013707	0.007823432969
2	1736	345.03462486593	0.318813261225
2	1741	346.829043881824	0
2	1746	348.44059319165	0
2	1753	350.30680166836	0
2	1756	350.640245520583	0.067476751915
2	1762	351.311236673478	0
2	1767	355.063564706418	0
2	1774	356.669801047639	0
2	1777	357.003244899862	0.115150381233
2	1782	357.66995982768	0
2	1787	358.157761848766	0
2	1792	358.505418407673	0
2	1797	360.663942086912	0
2	1802	361.423973022407	0
2	1807	362.401875625525	0
2	1812	365.878920221165	0
2	1817	366.550404095599	0
2	1822	367.432508675599	0
2	1827	369.270612602808	0
2	1832	374.574704112757	0
2	1839	375.47980101296	0
2	1842	375.813244865183	0.10273541606
2	1847	377.563543914773	0
2	1854	377.920091736005	0
2	1857	378.253535588228	0.131679352132
2	1862	379.822722349295	0
2	1867	380.345327868004	0
2	1872	381.999928569656	0
2	1877	383.740348443679	0
2	1882	388.795943923335	0
2	1887	389.351365387172	0
2	1892	391.182422039611	0
2	1899	392.017209917427	0
2	1902	392.35065376965	0.142079635141
2	1907	392.782006935233	0
2	1912	393.397460664498	0
2	1917	393.907234283781	0
2	1922	395.615256162167	0
2	1927	397.677637638586	0
2	1932	399.535396754864	0
2	1937	399.899595195314	0
2	1942	401.839274719789	0
2	1947	403.774363652596	0
2	1952	404.730443090186	0
2	1959	405.183098251637	0
2	1962	405.51654210386	0.124411490455
2	1967	406.100285804705	0
2	1972	406.882280227477	0
2	1977	409.73724734137	0
2	1982	410.438482721392	0
2	1987	411.535260917475	0
2	1992	413.000363064796	0
2	1997	413.582862258173	0
2	2002	414.280808999357	0
2	2009	414.864143604876	0
2	2013	415.47277172849	0.348321232142
2	2020	417.994966346198	0
2	2025	418.328410198421	0.292756218597
2	2028	418.661854050644	0.317308925549
2	2033	419.800032860685	0
2	2038	422.116137539375	0
2	2045	422.53518708295	0
2	2048	422.868630935173	0.057880066403
2	2057	424.084271893309	0
2	2062	424.417715745532	0.305117290627
2	2067	424.751159597755	0.470188769414
2	2070	425.084603449978	0.476270124652
2	2073	425.418047302201	0.582881799993
2	2078	429.034191712501	0
2	2083	429.677197662476	0
2	2088	431.484151082188	0
2	2093	432.427421391034	0
2	2098	433.390495525151	0
2	2103	434.989576378757	0
2	2108	436.418478230281	0
2	2113	440.542116581187	0
2	2118	441.842651426547	0
2	2123	444.452590675757	0
2	2128	446.708011811465	0
2	2135	448.985783760642	0
2	2138	449.319227612865	0.188461705482
2	2143	449.65943574421	0
2	2148	450.578279786419	0
2	2153	450.960688645168	0
2	2160	452.078836491789	0
2	2163	452.412280344012	0.267004719276
2	2170	453.292222693873	0
2	2173	453.625666546096	0.154253956755
2	2178	454.147710758678	0
2	2183	454.704555361896	0
2	2188	455.716219124224	0
2	2193	456.497140490795	0
2	2198	460.219020799443	0
2	2203	461.490574089588	0
2	2210	464.996952326709	0
2	2213	465.330396178932	0.108458199008
2	2218	466.562923802555	0
2	2223	467.757372331352	0
2	2228	468.548305419896	0
2	2235	469.297355704761	0
2	2238	469.630799556984	0.126473977063
2	2243	473.61702512912	0
2	2248	474.807764026606	0
2	2253	475.169464487342	0
2	2258	475.587688736945	0
2	2264	477.506713272726	0
2	2269	479.597903800317	0
2	2274	480.231945967703	0
2	2279	482.230503897132	0
2	2286	483.036843674813	0
2	2289	483.370287527036	0.251697141851
2	2294	484.882492704673	0
2	2299	485.573242639273	0
2	2306	486.445440409667	0
2	2311	486.77888426189	0.319437247342
2	2314	487.112328114113	0.237667692802
2	2319	488.06526601378	0
2	2324	491.75640504555	0
2	2329	492.73714118492	0
2	2334	493.433542244583	0
2	2339	494.425244664954	0
2	2346	495.017626067821	0
2	2349	495.351069920044	0.246403007414
2	2354	496.135843638106	0
2	2359	497.629528461061	0
2	2364	498.290096711362	0
2	2371	499.4811599216	0
2	2374	499.814603773823	0.170975254075
2	2379	500.922361355436	0
2	2384	502.426428606901	0
2	2389	503.358763513824	0
2	2396	504.037527054892	0
2	2399	504.370970907115	0.168014540773
2	2404	504.907632085533	0
2	2411	505.907692578424	0
2	2414	506.241136430647	0.033850028425
2	2419	506.646416100795	0
2	2424	507.877732805272	0
2	2435	509.658939619072	0
2	2442	509.992383471295	0.329981262499
2	2445	510.325827323518	0.41549113658
2	2448	510.659271175741	0.709064644476
2	2453	510.992715027964	0.743418604447
2	2460	511.326158880187	1.074612818821
2	2465	511.65960273241	0.405688374958
2	2470	511.993046584633	0.649911034962
2	2473	512.326490436856	0.858512132377
2	2478	512.659934289079	0.675223239064
2	2481	512.993378141302	0.958877599279
2	2486	513.326821993525	0.617735084955
2	2489	513.660265845748	0.20828868872
2	2494	517.325635532693	0
2	2501	518.549682709054	0
2	2504	518.883126561277	0.253343319601
2	2511	519.338257452256	0
2	2515	519.94688557587	0.375224433608
2	2520	520.301613358251	0
2	2527	521.518024202721	0
2	2530	521.851468054944	0.302128438189
2	2535	523.0291432151	0
2	2540	523.52603391536	0
2	2545	528.652782552247	0
2	2550	530.186777593072	0
2	2555	531.12734153684	0
2	2560	534.401876213576	0
2	2565	535.62310535109	0
2	2570	535.998717657992	0
2	2575	537.470961772203	0
2	2582	539.282656017501	0
2	2585	539.616099869724	0.135307423993
2	2590	540.721011051131	0
2	2597	542.089810139045	0
2	2600	542.423253991268	0.079713966504
2	2609	545.52217186308	0
2	2612	545.855615715303	0.169715037589
2	2615	546.189059567526	0.44497348003
2	2620	546.532007334473	0
2	2631	549.761267944848	0
2	2634	550.094711797071	0.274983788822
2	2637	550.428155649294	0.599177577515
2	2640	550.761599501517	0.847044918879
2	2645	551.140008223631	0
2	2650	552.092643524028	0
2	2659	554.368821884697	0
2	2662	554.70226573692	0.279376051269
2	2665	555.035709589143	0.561344583874
2	2670	555.803140334042	0
2	2675	561.134212004022	0
2	2680	562.224751709115	0
2	2687	565.054082089596	0
2	2692	565.387525941819	0.275523916187
2	2697	565.720969794042	0.086968364797
2	2702	566.054413646265	0.102645959052
2	2705	566.387857498488	0.111792014279
2	2712	567.473535529986	0
2	2715	567.806979382209	0.300798345386
2	2720	569.282718400222	0
2	2725	570.081491559744	0
2	2730	570.949355215313	0
2	2735	574.043950029974	0
2	2742	579.150677513072	0
2	2745	579.484121365295	0.042309183795
2	2750	580.187435985787	0
2	2755	584.138170023644	0
2	2760	584.900507359483	0
2	2766	585.606713434727	0
2	2771	587.418194248124	0
2	2776	589.709270458138	0
2	2781	591.26879278131	0
2	2786	592.513336938861	0
2	2791	593.581381609603	0
2	2796	594.172449536183	0
2	2803	594.627873755565	0
2	2806	594.961317607788	0.323731683079
2	2811	595.432052409252	0
2	2816	596.732192734413	0
2	2821	597.545062817481	0
2	2826	597.94993937059	0
2	2831	598.717234560803	0
2	2836	599.478173273773	0
2	2843	599.946085368387	0
2	2848	600.27952922061	0.14571368901
2	2853	600.612973072833	0.144965074076
2	2856	600.946416925056	0.332830843737
2	2861	602.659412507258	0
2	2866	604.399378159611	0
2	2873	605.975678933178	0
2	2876	606.309122785401	0.291675589203
2	2881	607.329921116064	0
2	2886	608.279606325981	0
2	2891	608.624307927318	0
2	2896	609.530138099856	0
2	2901	611.15695367776	0
2	2908	611.757442774474	0
2	2911	612.090886626697	0.062774636269
2	2916	612.614312426114	0
2	2921	613.208028090854	0
2	2926	613.901200065391	0
2	2933	615.219416257948	0
2	2936	615.552860110171	0.295535646052
2	2941	618.490837721076	0
2	2946	619.999387283521	0
2	2951	620.44489284031	0
2	2958	623.79300938858	0
2	2961	624.126453240803	0.118511056063
2	2966	625.251677500463	0
2	2973	626.776217710823	0
2	2976	627.109661563046	0.21004213581
2	2981	628.852928848377	0
2	2986	629.217803759105	0
2	2993	631.008272216123	0
2	2996	631.341716068346	0.15051609165
2	3001	632.500617154514	0
2	3008	633.023294898959	0
2	3011	633.356738751182	0.103578501102
2	3017	633.965366874796	0.047655276182
2	3022	635.888401727221	0
2	3029	637.048655018635	0
2	3034	637.382098870858	0.144301820914
2	3041	637.715542723081	0.030617486382
2	3046	638.048986575304	0.159029070431
2	3051	638.382430427527	0.465848904802
2	3054	638.71587427975	0.593574669788
2	3061	639.049318131973	0.652767302317
2	3064	639.382761984196	0.326708356725
2	3067	639.716205836419	0.569082677463
2	3074	640.240948703544	0
2	3079	640.574392555767	0.059329693274
2	3082	640.90783640799	0.146080861246
2	3087	642.456446943138	0
2	3092	644.590461049758	0
2	3097	645.162010956129	0
2	3104	649.837379224786	0
2	3109	650.170823077009	0.270532277883
2	3112	650.504266929232	0.016917460458
2	3119	651.359764705635	0
2	3122	651.693208557858	0.223147179888
2	3127	652.217433873127	0
2	3132	652.702445075107	0
2	3137	656.135901339456	0
2	3142	657.654072573265	0
2	3149	658.03948264728	0
2	3156	658.372926499503	0.121516560764
2	3159	658.706370351726	0.258590537465
2	3162	659.039814203949	0.518469269015
2	3167	659.942994704532	0
2	3174	661.469600943843	0
2	3179	661.803044796066	0.15209429148
2	3182	662.136488648289	0.198642711959
2	3187	662.994032521379	0
2	3192	667.705208052633	0
2	3199	668.279616336487	0
2	3202	668.61306018871	0.095567710544
2	3207	669.166078439187	0
2	3212	670.219532237945	0
2	3217	671.480472125866	0
2	3224	672.070236863029	0
2	3227	672.403680715252	0.023365608493
2	3232	673.580104772484	0
2	3239	674.569682987898	0
2	3244	674.903126840121	0.009576682262
2	3247	675.236570692344	0.322574888519
2	3252	676.943430800966	0
2	3257	678.343865614741	0
2	3262	680.379252936877	0
2	3268	681.012422805097	0
2	3273	682.43473129799	0
2	3278	683.640838206936	0
2	3287	685.141702684466	0
2	3290	685.475146536689	0.27552080018
2	3293	685.808590388912	0.41296004829
2	3298	689.582226390091	0
2	3307	690.075918107409	0
2	3310	690.409361959632	0.178368689418
2	3313	690.742805811855	0.431044576318
2	3318	695.158654547084	0
2	3323	696.877561485586	0
2	3328	697.553687575582	0
2	3335	699.362442348813	0
2	3338	699.695886201036	0.234482369023
2	3343	700.03166760914	0
2	3352	700.412527995478	0
2	3357	700.745971847701	0.129954062007
2	3360	701.079415699924	0.399331313254
2	3363	701.412859552147	0.434419030855
2	3368	701.905372042027	0
2	3373	702.667231948481	0
2	3378	703.058593785972	0
2	3385	705.284322910265	0
2	3388	705.617766762488	0.301162344267
2	3393	706.685132865518	0
2	3398	707.041187320806	0
2	3403	708.743335836636	0
2	3408	710.663574652471	0
2	3413	711.372606015502	0
2	3418	712.180983067716	0
2	3423	713.632137367019	0
2	3428	714.220225797137	0
2	3433	716.611974586768	0
2	3438	717.180055506227	0
2	3445	717.539243820127	0
2	3450	717.87268767235	0.173915135697
2	3453	718.206131524573	0.0007500649
2	3458	718.623258338258	0
2	3463	721.605784084702	0
2	3468	724.005514939165	0
2	3475	724.698351897733	0
2	3478	725.031795749956	0.228869494607
2	3483	725.462515921486	0
2	3490	726.013755227481	0
2	3493	726.347199079704	0.309263595052
2	3498	728.893596298267	0
2	3505	731.586939509077	0
2	3508	731.9203833613	0.288730987764
2	3515	732.625474910906	0
2	3521	733.23410303452	0.342057313577
2	3528	733.567546886743	0.308811123741
2	3533	733.900990738966	0.120976415098
2	3536	734.234434591189	0.375500820581
2	3539	734.567878443412	0.421244876816
2	3546	735.22371262633	0
2	3551	735.557156478553	0.310022412078
2	3554	735.890600330776	0.224332311438
2	3559	737.149292271463	0
2	3566	737.533278187176	0
2	3571	737.866722039399	0.263469437594
2	3574	738.200165891622	0.175956987842
2	3583	738.914529828986	0
2	3586	739.247973681209	0.127910773378
2	3591	739.581417533432	0.344350147232
2	3594	739.914861385655	0.013527970853
2	3599	742.387219593303	0
2	3604	744.439144900566	0
2	3609	744.946757630073	0
2	3614	747.014347962448	0
2	3621	747.402816426476	0
2	3626	747.736260278699	0.027219129061
2	3633	748.069704130922	0.099059692741
2	3636	748.403147983145	0.148635130256
2	3639	748.736591835368	0.466646104283
2	3644	749.252475786625	0
2	3651	750.405170161979	0
2	3654	750.738614014202	0.193222651712
2	3659	752.692920644241	0
2	3666	753.638698060903	0
2	3671	753.972141913126	0.307480033238
2	3674	754.305585765349	0.321111574755
2	3679	754.88325601137	0
2	3684	756.763048147076	0
2	3689	758.39209508717	0
2	3696	759.449651286667	0
2	3699	759.78309513889	0.272562190412
2	3704	760.371874197088	0
2	3709	762.048840239746	0
2	3714	764.596036239408	0
2	3719	766.512770728156	0
2	3726	767.296406983356	0
2	3729	767.629850835579	0.25295989859
2	3734	767.996738579191	0
2	3739	769.450085034335	0
2	3744	774.365528100306	0
2	3749	775.380387716357	0
2	3754	778.237182593768	0
2	3759	781.458244413263	0
2	3766	782.373152325362	0
2	3772	782.981780448976	0.495592887661
2	3775	783.315224301199	0.426114587867
2	3780	784.736151610125	0
2	3785	785.577179426662	0
2	3790	786.442306104741	0
2	3799	789.083675739559	0
2	3802	789.417119591782	0.281005823287
2	3805	789.750563444005	0.508946230842
2	3810	790.088774259187	0
2	3819	790.901876665488	0
2	3822	791.235320517711	0.077389658255
2	3827	791.568764369934	0.400654357586
2	3830	791.902208222157	0.203223735456
2	3835	792.623186964027	0
2	3840	793.246496219025	0
2	3847	793.902208268737	0
2	3850	794.23565212096	0.027067376543
2	3857	797.886295741236	0
2	3860	798.219739593459	0.145979488867
2	3865	801.731340101143	0
2	3870	803.404911075614	0
2	3875	804.575495431034	0
2	3880	804.960042587487	0
2	3885	806.931188098797	0
2	3890	807.373412131837	0
2	3895	813.497793051392	0
2	3900	813.894110965187	0
2	3905	815.24195350767	0
2	3910	816.243053509624	0
2	3915	818.112476293588	0
2	3920	818.561506854759	0
2	3927	819.049494754323	0
2	3930	819.382938606546	0.088789786117
2	3935	822.498859492898	0
2	3940	823.514494406229	0
2	3947	825.623959196836	0
2	3952	825.957403049059	0.311683641267
2	3957	826.290846901282	0.160247063462
2	3960	826.624290753505	0.036587792814
2	3965	827.075005269725	0
2	3970	828.134966214383	0
2	3975	831.334540857853	0
2	3980	832.770113096874	0
2	3985	833.668902828651	0
[...]
7	3478	725.031795749956	0
7	3483	725.462515921486	0
7	3490	726.013755227481	0
7	3493	726.347199079704	0
7	3498	728.893596298267	0
7	3505	731.586939509077	0
7	3508	731.9203833613	0
7	3515	732.625474910906	0
7	3521	733.23410303452	0
7	3528	733.567546886743	0
7	3533	733.900990738966	0
7	3536	734.234434591189	0
7	3539	734.567878443412	0
7	3546	735.22371262633	0
7	3551	735.557156478553	0
7	3554	735.890600330776	0
7	3559	737.149292271463	0
7	3566	737.533278187176	0
7	3571	737.866722039399	0
7	3574	738.200165891622	0
7	3583	738.914529828986	0
7	3586	739.247973681209	0
7	3591	739.581417533432	0
7	3594	739.914861385655	0
7	3599	742.387219593303	0
7	3604	744.439144900566	0
7	3609	744.946757630073	0
7	3614	747.014347962448	0
7	3621	747.402816426476	0
7	3626	747.736260278699	0
7	3633	748.069704130922	0
7	3636	748.403147983145	0
7	3639	748.736591835368	0
7	3644	749.252475786625	0
7	3651	750.405170161979	0
7	3654	750.738614014202	0
7	3659	752.692920644241	0
7	3666	753.638698060903	0
7	3671	753.972141913126	0
7	3674	754.305585765349	0
7	3679	754.88325601137	0
7	3684	756.763048147076	0
7	3689	758.39209508717	0
7	3696	759.449651286667	0
7	3699	759.78309513889	0
7	3704	760.371874197088	0
7	3709	762.048840239746	0
7	3714	764.596036239408	0
7	3719	766.512770728156	0
7	3726	767.296406983356	0
7	3729	767.629850835579	0
7	3734	767.996738579191	0
7	3739	769.450085034335	0
7	3744	774.365528100306	0
7	3749	775.380387716357	0
7	3754	778.237182593768	0
7	3759	781.458244413263	0
7	3766	782.373152325362	0
7	3772	782.981780448976	0
7	3775	783.315224301199	0
7	3780	784.736151610125	0
7	3785	785.577179426662	0
7	3790	786.442306104741	0
7	3799	789.083675739559	0
7	3802	789.417119591782	0
7	3805	789.750563444005	0
7	3810	790.088774259187	0
7	3819	790.901876665488	0
7	3822	791.235320517711	0
7	3827	791.568764369934	0
7	3830	791.902208222157	0
7	3835	792.623186964027	0
7	3840	793.246496219025	0
7	3847	793.902208268737	0
7	3850	794.23565212096	0
7	3857	797.886295741236	0
7	3860	798.219739593459	0
7	3865	801.731340101143	0
7	3870	803.404911075614	0
7	3875	804.575495431034	0
7	3880	804.960042587487	0
7	3885	806.931188098797	0
7	3890	807.373412131837	0
7	3895	813.497793051392	0
7	3900	813.894110965187	0
7	3905	815.24195350767	0
7	3910	816.243053509624	0
7	3915	818.112476293588	0
7	3920	818.561506854759	0
7	3927	819.049494754323	0
7	3930	819.382938606546	0
7	3935	822.498859492898	0
7	3940	823.514494406229	0
7	3947	825.623959196836	0
7	3952	825.957403049059	0
7	3957	826.290846901282	0
7	3960	826.624290753505	0
7	3965	827.075005269725	0
7	3970	828.134966214383	0
7	3975	831.334540857853	0
7	3980	832.770113096874	0
7	3985	833.668902828651	0
7	3990	834.585969050628	0
7	3997	836.729106188253	0
7	4000	837.062550040476	0
7	4007	838.703018347465	0
7	4010	839.036462199688	0
7	4015	839.771522843954	0
7	4021	840.61813470071	0
7	4026	841.276197701003	0
7	4031	842.28725827326	0
7	4036	842.753061742745	0
7	4041	845.297920596643	0
7	4046	845.693205138726	0
7	4051	846.459406943583	0
7	4056	847.561228934019	0
7	4065	849.72597471982	0
7	4072	850.059418572043	0
7	4075	850.392862424266	0
7	4078	850.726306276489	0
7	4083	851.059750128712	0
7	4088	851.393193980935	0
7	4091	851.726637833158	0
7	4098	853.160138357645	0
7	4101	853.493582209868	0
7	4106	854.592963426602	0
7	4111	857.69650724156	0
7	4116	858.270668838978	0
7	4123	858.984948824957	0
7	4126	859.31839267718	0
7	4131	860.844457484099	0
7	4136	861.421062975876	0
7	4143	861.889701461109	0
7	4148	862.223145313332	0
7	4151	862.556589165555	0
7	4158	864.069156218118	0
7	4161	864.402600070341	0
7	4166	865.946601220715	0
7	4171	866.503257940974	0
7	4176	870.096349744027	0
7	4181	870.642559464558	0
7	4188	871.05081954838	0
7	4191	871.384263400603	0
7	4196	873.339487318297	0
7	4201	874.997691755652	0
7	4206	875.501240058232	0
7	4211	876.457270980745	0
7	4216	877.237489571456	0
7	4223	878.63318625512	0
7	4226	878.966630107343	0
7	4231	879.794908111651	0
7	4236	880.646690846747	0
7	4241	881.419369390871	0
7	4246	882.145103734086	0
7	4253	883.076823413036	0
7	4256	883.410267265259	0
7	4261	884.7599320077	0
7	4266	885.317367353077	0
7	4272	885.925995476691	0
7	4277	889.212677301537	0
7	4286	889.920019344826	0
7	4289	890.253463197049	0
7	4292	890.586907049272	0
7	4297	891.265313869137	0
7	4302	892.525652032148	0
7	4307	892.903626891333	0
7	4312	894.109517587654	0
7	4317	894.659123405207	0
7	4322	897.469872229569	0
7	4327	899.500416421321	0
7	4332	901.005505267522	0
7	4337	901.49492560608	0
7	4342	902.623554322814	0
7	4347	903.970883509949	0
7	4352	904.375209177993	0
7	4361	906.232186574659	0
7	4366	906.565630426882	0
7	4371	906.899074279105	0
7	4376	907.232518131328	0
7	4379	907.565961983551	0
7	4382	907.899405835774	0
7	4389	909.03752703652	0
7	4392	909.370970888743	0
7	4397	909.911929708077	0
7	4402	910.620269033063	0
7	4407	911.590699083722	0
7	4412	912.622816568138	0
7	4419	913.573244299959	0
7	4426	913.906688152182	0
7	4429	914.240132004405	0
7	4434	914.573575856628	0
7	4437	914.907019708851	0
7	4442	915.818468929073	0
7	4451	916.410154395063	0
7	4458	916.743598247286	0
7	4461	917.077042099509	0
7	4464	917.410485951732	0
7	4467	917.743929803955	0
7	4476	918.466722986579	0
7	4483	918.800166838802	0
7	4486	919.133610691025	0
7	4491	919.467054543248	0
7	4496	919.800498395471	0
7	4499	920.133942247694	0
7	4502	920.467386099917	0
7	4507	924.142175272748	0
7	4514	925.825552560397	0
7	4517	926.15899641262	0
7	4523	927.452801749208	0
7	4528	929.587923071503	0
7	4533	931.435306547445	0
7	4538	934.936441577492	0
7	4543	936.545701701351	0
7	4548	937.47476115721	0
7	4553	938.204864625123	0
7	4558	938.987348210803	0
7	4563	941.101011002378	0
7	4568	941.61414213269	0
7	4573	942.941767167671	0
7	4580	943.760470175316	0
7	4583	944.093914027539	0
7	4588	945.02518853962	0
7	4593	945.856203592479	0
7	4598	946.204707515186	0
7	4603	948.160473323719	0
7	4608	948.593879857623	0
7	4613	949.058996212143	0
7	4618	949.683987794481	0
7	4623	951.479143793936	0
7	4628	952.833148253054	0
7	4635	953.447705822391	0
7	4642	953.781149674614	0
7	4645	954.114593526837	0
7	4648	954.44803737906	0
7	4655	955.347338417575	0
7	4660	955.680782269798	0
7	4669	956.014226122021	0
7	4672	956.347669974244	0
7	4677	956.681113826467	0
7	4680	957.01455767869	0
7	4683	957.348001530913	0
7	4688	959.355820011098	0
7	4693	960.100807147583	0
7	4698	961.181088666786	0
7	4705	961.673873005398	0
7	4712	962.007316857621	0
7	4715	962.340760709844	0
7	4718	962.674204562067	0
7	4723	963.869105780331	0
7	4728	964.639456018122	0
7	4733	965.070937156687	0
7	4738	967.298748172615	0
7	4743	968.319560836843	0
7	4748	969.591991699749	0
7	4753	970.066516220506	0
7	4758	971.003213551052	0
7	4763	972.408924414855	0
7	4768	974.15320940204	0
7	4774	974.833567595962	0
7	4783	975.787675344272	0
7	4788	976.121119196495	0
7	4793	976.454563048718	0
7	4796	976.788006900941	0
7	4803	977.121450753164	0
7	4808	977.454894605387	0
7	4811	977.78833845761	0
7	4814	978.121782309833	0
7	4821	978.494690018556	0
7	4826	978.828133870779	0
7	4829	979.161577723002	0
7	4834	981.008515033505	0
7	4839	982.629264275437	0
7	4844	984.044298336366	0
7	4849	985.186125207924	0
7	4854	985.951498611708	0
7	4863	986.297877482743	0
7	4866	986.631321334966	0
7	4869	986.964765187189	0
7	4874	987.325466025022	0
7	4881	988.021903717793	0
7	4886	988.355347570016	0
7	4889	988.688791422239	0
7	4896	989.743165293719	0
7	4899	990.076609145942	0
7	4904	990.756275439566	0
7	4909	992.167336684376	0
7	4914	993.721401052652	0
7	4919	994.507281422367	0
7	4924	995.044018525231	0
7	4929	996.188221869341	0
7	4934	999.175619511003	0
7	4939	999.938588280086	0
8	11	3.480612082147	0.253896473104
8	31	7.1186282989	0.0910275324
8	41	8.724943719914	0.137227328723
8	66	16.708130857035	0.138970007045
8	116	26.900310444574	0.024566102872
8	121	27.233754296797	0.313731538677
8	126	27.56719814902	0.118407526986
8	141	29.959736374965	0.008758905631
8	161	34.018602705344	0.217342906428
8	176	37.286433688132	0.114607649232
8	226	48.689812705367	0.127174403929
8	257	59.349741218613	0.331953615083
8	312	72.66194352713	0.146483646235
8	332	75.892001066611	0.268244419583
8	372	86.023027527336	0.029452565289
8	379	86.356471379559	0.228746967658
8	382	86.689915231782	0.465222638463
8	392	87.899153523377	0.271550928529
8	397	88.2325973756	0.325580418743
8	404	88.566041227823	0.264119232675
8	407	88.899485080046	0.453323597604
8	442	100.592855619286	0.139205952549
8	467	103.905486444024	0.27968306813
8	472	104.238930296247	0.057063693728
8	504	109.060292569951	0.266212872134
8	538	114.244352458304	0.118493488156
8	578	122.333868330224	0.027629312545
8	583	122.667312182447	0.167240624399
8	598	124.650803403485	0.276988593331
8	610	125.320319328385	0.036397148766
8	613	125.653763180608	0.363792395474
8	633	129.371407810731	0.10492426703
8	643	132.059840547261	0.012457559053
8	648	132.393284399484	0.05244287018
8	673	136.443449870267	0.29117765482
8	693	139.833056116558	0.217336077744
8	755	149.48282948584	0.184218201288
8	774	153.77214703839	0.128320288961
8	799	164.825028388531	0.313753621571
8	806	165.158472240754	0.308932472532
8	809	165.491916092977	0.429213618138
8	829	169.898915080161	0.006248756696
8	846	173.258495336506	0.05090081441
8	849	173.591939188729	0.375321942972
8	866	178.825628860293	0.093761098508
8	869	179.159072712516	0.380646675167
8	874	179.492516564739	0.055824918509
8	884	184.104854344736	0.09443543
8	889	184.438298196959	0.114804389394
8	894	184.771742049182	0.120391045355
8	904	185.695993554148	0.200546144064
8	911	186.029437406371	0.200630369175
8	914	186.362881258594	0.50395751559
8	921	186.696325110817	0.320229163246
8	926	187.02976896304	0.645247251642
8	929	187.363212815263	0.446230760491
8	934	187.696656667486	0.069689158308
8	939	188.030100519709	0.186433400709
8	949	189.925414966419	0.01371704995
8	954	190.258858818642	0.166079981897
8	959	190.592302670865	0.048592312746
8	979	192.859490892047	0.280807908981
8	984	193.19293474427	0.008332508981
8	1006	196.333039753913	0.190028894917
8	1022	199.744600956678	0.197101629609
8	1025	200.078044808901	0.514386947314
8	1055	207.931836762264	0.251794765453
8	1102	215.464111985167	0.311808519091
8	1105	215.79755583739	0.586827372749
8	1130	222.363187251612	0.047141926465
8	1135	222.696631103835	0.296705842611
8	1140	223.030074956058	0.111382823748
8	1150	227.695615425101	0.02325945991
8	1159	228.029059277324	0.182725240011
8	1166	228.362503129547	0.43151353692
8	1169	228.69594698177	0.719132522064
8	1174	229.029390833993	0.890358468509
8	1179	229.362834686216	1.009489434519
8	1184	229.696278538439	0.669334313112
8	1189	230.029722390662	0.950143224119
8	1192	230.363166242885	0.800316800135
8	1195	230.696610095108	0.860971159894
8	1210	232.590980361958	0.024035447459
8	1271	248.28549687461	0.165597455204
8	1278	248.618940726833	0.332561933928
8	1283	248.952384579056	0.575367282443
8	1286	249.285828431279	0.562571734458
8	1301	251.724115041444	0.015665489609
8	1316	259.44265604425	0.194915078741
8	1321	259.776099896473	0.254629792207
8	1351	264.516859246367	0.017913103724
8	1373	269.451915165889	0.127323049116
8	1376	269.785359018112	0.454772836229
8	1401	277.063244725871	0.095432380851
8	1406	277.396688578094	0.240044209006
8	1413	277.730132430317	0.301148544104
8	1416	278.06357628254	0.479154557251
8	1463	289.021296815753	0.105262603227
8	1468	289.354740667976	0.362522917716
8	1471	289.688184520199	0.608762341457
8	1481	291.606403731516	0.012599786739
8	1508	301.964879383426	0.469513896685
8	1522	307.801476382629	0.0206015098
8	1532	309.238254904119	0.174401602794
8	1557	315.897718730782	0.324628352936
8	1572	317.864543510597	0.08165229719
8	1624	327.439544292574	0.127538910716
8	1627	327.772988144797	0.416876722764
8	1647	333.177765374875	0.035039335256
8	1667	336.953750300689	0.010555759322
8	1682	338.908080441521	0.110967296304
8	1697	340.979646434707	0.272424550399
8	1702	341.31309028693	0.042031625292
8	1707	341.646534139153	0.026286226811
8	1714	341.979977991376	0.327685267874
8	1717	342.313421843599	0.408420112257
8	1727	344.367737161484	0.007823432969
8	1732	344.701181013707	0.318813261225
8	1752	350.30680166836	0.067476751915
8	1773	356.669801047639	0.115150381233
8	1838	375.47980101296	0.10273541606
8	1853	377.920091736005	0.131679352132
8	1898	392.017209917427	0.142079635141
8	1958	405.183098251637	0.124411490455
8	2010	415.139327876267	0.348321232142
8	2019	417.994966346198	0.292756218597
8	2024	418.328410198421	0.317308925549
8	2044	422.53518708295	0.057880066403
8	2056	424.084271893309	0.305117290627
8	2061	424.417715745532	0.470188769414
8	2066	424.751159597755	0.476270124652
8	2069	425.084603449978	0.582881799993
8	2134	448.985783760642	0.188461705482
8	2159	452.078836491789	0.267004719276
8	2169	453.292222693873	0.154253956755
8	2209	464.996952326709	0.108458199008
8	2234	469.297355704761	0.126473977063
8	2285	483.036843674813	0.251697141851
8	2305	486.445440409667	0.319437247342
8	2310	486.77888426189	0.237667692802
8	2345	495.017626067821	0.246403007414
8	2370	499.4811599216	0.170975254075
8	2395	504.037527054892	0.168014540773
8	2410	505.907692578424	0.033850028425
8	2434	509.658939619072	0.329981262499
8	2441	509.992383471295	0.41549113658
8	2444	510.325827323518	0.709064644476
8	2447	510.659271175741	0.743418604447
8	2452	510.992715027964	1.074612818821
8	2459	511.326158880187	0.405688374958
8	2464	511.65960273241	0.649911034962
8	2469	511.993046584633	0.858512132377
8	2472	512.326490436856	0.675223239064
8	2477	512.659934289079	0.958877599279
8	2480	512.993378141302	0.617735084955
8	2485	513.326821993525	0.20828868872
8	2500	518.549682709054	0.253343319601
8	2512	519.613441723647	0.375224433608
8	2526	521.518024202721	0.302128438189
8	2581	539.282656017501	0.135307423993
8	2596	542.089810139045	0.079713966504
8	2608	545.52217186308	0.169715037589
8	2611	545.855615715303	0.44497348003
8	2630	549.761267944848	0.274983788822
8	2633	550.094711797071	0.599177577515
8	2636	550.428155649294	0.847044918879
8	2658	554.368821884697	0.279376051269
8	2661	554.70226573692	0.561344583874
8	2686	565.054082089596	0.275523916187
8	2691	565.387525941819	0.086968364797
8	2696	565.720969794042	0.102645959052
8	2701	566.054413646265	0.111792014279
8	2711	567.473535529986	0.300798345386
8	2741	579.150677513072	0.042309183795
8	2802	594.627873755565	0.323731683079
8	2842	599.946085368387	0.14571368901
8	2847	600.27952922061	0.144965074076
8	2852	600.612973072833	0.332830843737
8	2872	605.975678933178	0.291675589203
8	2907	611.757442774474	0.062774636269
8	2932	615.219416257948	0.295535646052
8	2957	623.79300938858	0.118511056063
8	2972	626.776217710823	0.21004213581
8	2992	631.008272216123	0.15051609165
8	3007	633.023294898959	0.103578501102
8	3014	633.631923022573	0.047655276182
8	3028	637.048655018635	0.144301820914
8	3033	637.382098870858	0.030617486382
8	3040	637.715542723081	0.159029070431
8	3045	638.048986575304	0.465848904802
8	3050	638.382430427527	0.593574669788
8	3053	638.71587427975	0.652767302317
8	3060	639.049318131973	0.326708356725
8	3063	639.382761984196	0.569082677463
8	3073	640.240948703544	0.059329693274
8	3078	640.574392555767	0.146080861246
8	3103	649.837379224786	0.270532277883
8	3108	650.170823077009	0.016917460458
8	3118	651.359764705635	0.223147179888
8	3148	658.03948264728	0.121516560764
8	3155	658.372926499503	0.258590537465
8	3158	658.706370351726	0.518469269015
8	3173	661.469600943843	0.15209429148
8	3178	661.803044796066	0.198642711959
8	3198	668.279616336487	0.095567710544
8	3223	672.070236863029	0.023365608493
8	3238	674.569682987898	0.009576682262
8	3243	674.903126840121	0.322574888519
8	3286	685.141702684466	0.27552080018
8	3289	685.475146536689	0.41296004829
8	3306	690.075918107409	0.178368689418
8	3309	690.409361959632	0.431044576318
8	3334	699.362442348813	0.234482369023
8	3351	700.412527995478	0.129954062007
8	3356	700.745971847701	0.399331313254
8	3359	701.079415699924	0.434419030855
8	3384	705.284322910265	0.301162344267
8	3444	717.539243820127	0.173915135697
8	3449	717.87268767235	0.0007500649
8	3474	724.698351897733	0.228869494607
8	3489	726.013755227481	0.309263595052
8	3504	731.586939509077	0.288730987764
8	3516	732.900659182297	0.342057313577
8	3520	733.23410303452	0.308811123741
8	3527	733.567546886743	0.120976415098
8	3532	733.900990738966	0.375500820581
8	3535	734.234434591189	0.421244876816
8	3545	735.22371262633	0.310022412078
8	3550	735.557156478553	0.224332311438
8	3565	737.533278187176	0.263469437594
8	3570	737.866722039399	0.175956987842
8	3582	738.914529828986	0.127910773378
8	3585	739.247973681209	0.344350147232
8	3590	739.581417533432	0.013527970853
8	3620	747.402816426476	0.027219129061
8	3625	747.736260278699	0.099059692741
8	3632	748.069704130922	0.148635130256
8	3635	748.403147983145	0.466646104283
8	3650	750.405170161979	0.193222651712
8	3665	753.638698060903	0.307480033238
8	3670	753.972141913126	0.321111574755
8	3695	759.449651286667	0.272562190412
8	3725	767.296406983356	0.25295989859
8	3769	782.648336596753	0.495592887661
8	3771	782.981780448976	0.426114587867
8	3798	789.083675739559	0.281005823287
8	3801	789.417119591782	0.508946230842
8	3818	790.901876665488	0.077389658255
8	3821	791.235320517711	0.400654357586
8	3826	791.568764369934	0.203223735456
8	3846	793.902208268737	0.027067376543
8	3856	797.886295741236	0.145979488867
8	3926	819.049494754323	0.088789786117
8	3946	825.623959196836	0.311683641267
8	3951	825.957403049059	0.160247063462
8	3956	826.290846901282	0.036587792814
8	3996	836.729106188253	0.069762283879
8	4006	838.703018347465	0.330350910328
8	4064	849.72597471982	0.300831341316
8	4071	850.059418572043	0.398605989133
8	4074	850.392862424266	0.532196322524
8	4077	850.726306276489	0.738470135839
8	4082	851.059750128712	0.173407999061
8	4087	851.393193980935	0.152361596462
8	4097	853.160138357645	0.112857872469
8	4122	858.984948824957	0.173651886191
8	4142	861.889701461109	0.074629253478
8	4147	862.223145313332	0.242153449113
8	4157	864.069156218118	0.159429463179
8	4187	871.05081954838	0.279165791005
8	4222	878.63318625512	0.024871552557
8	4252	883.076823413036	0.214530893652
8	4269	885.592551624468	0.053184311321
8	4285	889.920019344826	0.1761584071
8	4288	890.253463197049	0.508664576378
8	4360	906.232186574659	0.286851708264
8	4365	906.565630426882	0.564039014548
8	4370	906.899074279105	0.587945625134
8	4375	907.232518131328	0.481550683963
8	4378	907.565961983551	0.470303640118
8	4388	909.03752703652	0.333140549906
8	4418	913.573244299959	0.052712254171
8	4425	913.906688152182	0.330473681746
8	4428	914.240132004405	0.479074213946
8	4433	914.573575856628	0.297176461308
8	4450	916.410154395063	0.090075791299
8	4457	916.743598247286	0.402955898942
8	4460	917.077042099509	0.416844000556
8	4463	917.410485951732	0.736050384368
8	4475	918.466722986579	0.113982859376
8	4482	918.800166838802	0.384538244099
8	4485	919.133610691025	0.556230143657
8	4490	919.467054543248	0.79790080254
8	4495	919.800498395471	0.383360592845
8	4498	920.133942247694	0.518042415324
8	4513	925.825552560397	0.205564708209
8	4579	943.760470175316	0.248528096884
8	4634	953.447705822391	0.05573906983
8	4641	953.781149674614	0.239826793422
8	4644	954.114593526837	0.467063245983
8	4654	955.347338417575	0.11355807665
8	4659	955.680782269798	0.298842387358
8	4668	956.014226122021	0.294047955777
8	4671	956.347669974244	0.496664307928
8	4676	956.681113826467	0.732602368745
8	4679	957.01455767869	0.421761267544
8	4704	961.673873005398	0.202277434598
8	4711	962.007316857621	0.121688268644
8	4714	962.340760709844	0.377540295994
8	4782	975.787675344272	0.311406160972
8	4787	976.121119196495	0.513727312488
8	4792	976.454563048718	0.623729616266
8	4795	976.788006900941	0.638527398638
8	4802	977.121450753164	0.107566547513
8	4807	977.454894605387	0.38364608697
8	4810	977.78833845761	0.660789740277
8	4820	978.494690018556	0.16915424588
8	4825	978.828133870779	0.331502320076
8	4862	986.297877482743	0.266576229195
8	4865	986.631321334966	0.448154148544
8	4880	988.021903717793	0.271214774122
8	4885	988.355347570016	0.07402348275
8	4895	989.743165293719	0.106227062464

