version 2
run General-265-20240201-11:04:25-40057
attr configname General
attr datetime 20240201-11:04:25
attr experiment General
attr inifile main.ini
attr iterationvars "$0=1.2, $1=1.7, $2=50"
attr iterationvarsf 1.2,1.7,50-
attr measurement "$0=1.2, $1=1.7, $2=50"
attr network Rete
attr processid 40057
attr repetition 5
attr replication #5
attr resultdir results
attr runnumber 265
attr seedset 265
param Rete.lambda 1.2
param Rete.a 0.3s
param Rete.b 1.7s
param Rete.c 0.1s
param Rete.d 0.3s
param Rete.mu 3.0
param Rete.source2.interArrivalTime exponential(1s/lambda)
param Rete.source2.jobServiceTime exponential(1s/mu)
param Rete.source2.deadline uniform(a,b)
param Rete.server2.j 50
param Rete.server2.V uniform(c,d)

vector 0 Rete.passiveQueue queueLength:vector ETV
attr interpolationmode sample-hold
attr title "queue length, vector"
vector 1 Rete.passiveQueue queueingTime:vector ETV
attr interpolationmode none
attr title "queueing time at dequeue, vector"
attr unit s
vector 2 Rete.sink lifeTime:vector ETV
attr interpolationmode none
attr title "lifetime of arrived jobs, vector"
attr unit s
vector 3 Rete.sink totalQueueingTime:vector ETV
attr interpolationmode none
attr title "the total time spent in queues by arrived jobs, vector"
attr unit s
vector 4 Rete.sink queuesVisited:vector ETV
attr interpolationmode none
attr title "the total number of queues visited by arrived jobs, vector"
vector 5 Rete.sink totalServiceTime:vector ETV
attr interpolationmode none
attr title "the total time spent  by arrived jobs, vector"
attr unit s
vector 6 Rete.sink totalDelayTime:vector ETV
attr interpolationmode none
attr title "the total time spent in delay nodes by arrived jobs, vector"
attr unit s
vector 7 Rete.sink delaysVisited:vector ETV
attr interpolationmode none
attr title "the total number of delays visited by arrived jobs, vector"
vector 8 Rete.sink generation:vector ETV
attr interpolationmode none
attr title "the generation of the arrived jobs, vector"
0	0	0	0
0	5	0.722897930656	1
0	6	1.009196229313	0
0	13	1.702458551054	1
0	15	1.919278392393	2
0	16	2.079827579475	1
0	18	2.079827579475	0
0	24	3.336701019675	1
0	25	3.587864016407	0
0	32	4.23258760674	1
0	34	4.360240668858	2
0	36	4.365531171295	3
0	37	4.419520647231	2
0	39	4.419520647231	1
0	40	4.419520647231	0
0	46	5.356340224445	1
0	48	5.378483987145	2
0	50	5.510664501162	3
0	51	5.665669725593	2
0	53	5.665669725593	1
0	54	5.665669725593	0
0	75	9.775452496284	1
0	76	10.07618799782	0
0	88	11.537118483397	1
0	90	11.591931092033	2
0	91	11.838015579195	1
0	93	11.838015579195	0
0	119	18.362525381025	1
0	121	18.639502140666	2
0	122	18.67744187531	1
0	124	18.67744187531	0
0	150	30.33280294169	1
0	151	30.619779625003	0
0	158	31.410005957369	1
0	160	31.537234358086	2
0	161	31.727711172931	1
0	163	31.727711172931	0
0	174	34.864277858421	1
0	175	34.891717698956	0
0	192	37.259960894794	1
0	193	37.28980604928	0
0	210	42.724404648463	1
0	211	42.840851846354	0
0	218	43.822293416446	1
0	219	44.169593881652	0
0	226	45.422267236445	1
0	227	45.571891958755	0
0	244	49.790593921378	1
0	245	49.924344451454	0
0	272	54.39965389062	1
0	273	54.757852288258	0
0	280	55.615493402653	1
0	281	55.680374746999	0
0	288	57.223727908718	1
0	289	57.268954577019	0
0	316	62.209878501331	1
0	317	62.311734126277	0
0	355	69.523227713913	1
0	356	69.676415828149	0
0	368	73.11901308088	1
0	369	73.187381984883	0
0	426	82.174283991806	1
0	427	82.436792115291	0
0	434	84.571727764314	1
0	435	84.794388069345	0
0	457	90.891747960282	1
0	458	91.00845298177	0
0	475	95.655450858754	1
0	476	95.728904243827	0
0	488	103.503694901625	1
0	489	103.606616612795	0
0	521	115.717578449276	1
0	522	115.764019991227	0
0	529	116.982470943215	1
0	530	117.10196613469	0
0	537	118.185488955459	1
0	539	118.522594206316	2
0	540	118.567677667663	1
0	542	118.567677667663	0
0	553	121.298865770074	1
0	555	121.434424726853	2
0	556	121.690520046581	1
0	558	121.690520046581	0
0	569	123.235232386353	1
0	570	123.382050828186	0
0	587	124.95259137942	1
0	588	125.006421423647	0
0	595	125.86552445583	1
0	596	126.103858454165	0
0	618	130.73018419571	1
0	620	130.793329448769	2
0	621	130.996267545662	1
0	623	130.996267545662	0
0	629	131.378717335463	1
0	630	131.516778795107	0
0	637	131.96098744387	1
0	638	131.968832487571	0
0	645	132.440724280538	1
0	648	132.788488582213	0
0	659	137.016887670843	1
0	660	137.025679817163	0
0	672	139.418761822897	1
0	674	139.48232797127	2
0	675	139.508218247272	1
0	677	139.508218247272	0
0	713	147.966891387822	1
0	714	148.229794400066	0
0	736	154.151692718735	1
0	737	154.503827400362	0
0	764	157.132365472714	1
0	765	157.226650815229	0
0	772	157.495543775899	1
0	773	157.632861516662	0
0	795	162.407779732003	1
0	796	162.501873053814	0
0	808	163.338421025969	1
0	810	163.374114180105	2
0	811	163.673551943194	1
0	813	163.673551943194	0
0	819	165.232541251747	1
0	820	165.544110179447	0
0	837	170.288174051051	1
0	839	170.314495080519	2
0	840	170.518075923629	1
0	842	170.518075923629	0
0	853	174.383827256045	1
0	854	174.501584891873	0
0	901	185.631430560465	1
0	903	185.752924348616	2
0	904	185.967759790251	1
0	906	185.967759790251	0
0	917	188.199406540774	1
0	918	188.288138664931	0
0	925	189.377631733986	1
0	926	189.54855175618	0
0	938	190.490502929178	1
0	939	190.851751962087	0
0	946	192.773068134196	1
0	947	192.795428164525	0
0	959	195.05612892541	1
0	962	195.551569350567	0
0	968	197.560270662103	1
0	969	197.880838435012	0
0	981	199.477805846461	1
0	982	199.653249187578	0
0	999	201.634848786753	1
0	1000	201.934184933125	0
0	1022	204.789366242704	1
0	1023	205.093427803943	0
0	1030	206.383582357368	1
0	1031	206.502633221279	0
0	1038	208.205699082959	1
0	1039	208.556960896823	0
0	1071	215.15436501924	1
0	1072	215.229664236853	0
0	1079	216.14386371105	1
0	1080	216.207400617403	0
0	1107	221.6079305084	1
0	1109	221.613127556821	2
0	1110	221.622226573397	1
0	1112	221.622226573397	0
0	1118	222.441755653751	1
0	1119	222.515269089335	0
0	1126	222.923202212908	1
0	1128	222.958401067108	2
0	1129	223.302445596429	1
0	1131	223.302445596429	0
0	1147	225.636822538384	1
0	1148	225.843963749121	0
0	1190	237.057300004449	1
0	1191	237.240055924542	0
0	1213	241.024176572671	1
0	1214	241.105776625092	0
0	1241	246.213476644455	1
0	1242	246.397455245227	0
0	1259	249.882701737423	1
0	1260	250.160864917095	0
0	1278	253.625199336405	1
0	1280	253.743307363022	2
0	1281	253.998893512113	1
0	1283	253.998893512113	0
0	1299	256.75728861705	1
0	1300	257.132137294845	0
0	1312	258.62912082532	1
0	1314	258.775612799272	2
0	1316	258.826299934086	3
0	1318	258.948325069386	4
0	1319	258.98973899557	3
0	1321	258.98973899557	2
0	1322	258.98973899557	1
0	1323	258.98973899557	0
0	1354	266.329560731364	1
0	1356	266.602803424798	2
0	1357	266.692126586089	1
0	1359	266.692126586089	0
0	1380	276.960588716529	1
0	1381	277.173993629543	0
0	1388	277.64547260348	1
0	1389	278.031962726752	0
0	1396	278.945309164885	1
0	1398	278.94949163381	2
0	1399	279.22591027909	1
0	1401	279.22591027909	0
0	1417	282.007381373662	1
0	1418	282.03936244114	0
0	1425	284.047642522078	1
0	1427	284.291593247585	2
0	1428	284.379003845249	1
0	1430	284.379003845249	0
0	1436	287.406538808138	1
0	1438	287.462015872128	2
0	1439	287.700408487362	1
0	1441	287.700408487362	0
0	1447	288.876466736907	1
0	1448	289.010516364617	0
0	1475	294.221785349822	1
0	1477	294.497621704515	2
0	1478	294.533559998378	1
0	1480	294.533559998378	0
0	1491	296.290241409733	1
0	1492	296.411934766037	0
0	1544	309.141099371942	1
0	1545	309.197950691577	0
0	1557	312.046290377609	1
0	1558	312.205251191664	0
0	1565	312.912173349171	1
0	1566	313.199322222769	0
0	1573	315.107758782509	1
0	1574	315.383080109051	0
0	1596	320.661304425314	1
0	1598	320.761721231797	2
0	1601	321.089959315457	1
0	1602	321.089959315457	0
0	1613	322.792358199812	1
0	1614	322.933517452642	0
0	1646	329.034912575474	1
0	1647	329.237712396553	0
0	1659	330.708416408352	1
0	1660	331.016730437861	0
0	1667	331.485162740544	1
0	1668	331.647369850101	0
0	1685	334.374179403495	1
0	1686	334.436779034822	0
0	1693	334.828771765359	1
0	1694	335.083073210831	0
0	1701	335.120483586272	1
0	1703	335.410122074847	2
0	1704	335.47987103164	1
0	1706	335.47987103164	0
0	1727	342.084758636501	1
0	1728	342.090746602271	0
0	1745	344.650779320599	1
0	1746	345.004422204617	0
0	1753	345.86593905448	1
0	1754	345.996316037618	0
0	1761	346.423646213034	1
0	1762	346.620387093046	0
0	1824	360.150326978139	1
0	1825	360.464743789712	0
0	1837	363.032053232771	1
0	1839	363.247388927937	2
0	1840	363.318693603943	1
0	1842	363.318693603943	0
0	1853	367.902372017755	1
0	1855	367.920919165389	2
0	1856	368.143893199176	1
0	1858	368.143893199176	0
0	1864	368.337921641905	1
0	1865	368.551747219325	0
0	1882	373.983716171171	1
0	1883	374.132750918245	0
0	1910	383.442850731964	1
0	1914	383.635678794402	2
0	1916	383.735356992212	3
0	1917	383.906293378716	2
0	1918	383.906293378716	1
0	1919	383.906293378716	0
0	1940	388.30273689867	1
0	1941	388.424118842557	0
0	1953	389.514889650365	1
0	1954	389.540289597444	0
0	1966	394.74001542414	1
0	1967	394.825966427798	0
0	1974	396.47222903965	1
0	1975	396.53702200745	0
0	1982	398.295465825961	1
0	1983	398.479746288118	0
0	1990	399.048925053364	1
0	1991	399.311278306698	0
0	2003	403.178196691788	1
0	2004	403.496861945133	0
0	2036	411.021843545631	1
0	2038	411.290439873759	2
0	2039	411.380688263258	1
0	2041	411.380688263258	0
0	2067	414.899344979975	1
0	2068	415.259199208392	0
0	2080	417.250113819079	1
0	2081	417.502457849828	0
0	2113	429.063169278335	1
0	2114	429.094194056895	0
0	2161	440.645770713989	1
0	2162	441.025793952558	0
0	2169	442.166241960453	1
0	2170	442.530698146336	0
0	2212	455.867018120699	1
0	2215	456.485490553112	0
0	2231	461.101848357825	1
0	2232	461.487608707389	0
0	2259	468.95948485131	1
0	2261	469.34331199685	2
0	2262	469.346153260174	1
0	2264	469.346153260174	0
0	2275	472.364799519925	1
0	2277	472.552101121266	2
0	2278	472.681948425082	1
0	2280	472.681948425082	0
0	2306	476.594615339791	1
0	2307	476.718073411498	0
0	2324	478.375551281346	1
0	2325	478.760041070959	0
0	2332	478.924275188316	1
0	2333	479.249761910904	0
0	2340	480.195382002273	1
0	2341	480.292956355298	0
0	2368	485.107184963647	1
0	2369	485.48253147821	0
0	2376	485.774954570996	1
0	2377	486.136246016935	0
0	2389	487.846378822534	1
0	2390	488.014752546965	0
0	2407	493.084032342354	1
0	2408	493.093599911285	0
0	2420	495.12784645922	1
0	2421	495.365793406505	0
0	2433	496.520638968394	1
0	2435	496.782060415722	2
0	2436	496.896147064048	1
0	2438	496.896147064048	0
0	2449	499.103399752975	1
0	2450	499.277541821432	0
0	2457	500.097907686922	1
0	2458	500.449389473985	0
0	2465	501.515792996849	1
0	2466	501.686918848348	0
0	2483	503.924394970097	1
0	2484	504.226287531311	0
0	2521	515.381501334259	1
0	2522	515.58849590647	0
0	2535	517.929920641289	1
0	2537	517.99757627524	2
0	2538	518.135765184077	1
0	2540	518.135765184077	0
0	2546	518.493027939743	1
0	2548	518.729561378278	2
0	2550	518.767733135671	3
0	2551	518.783554183103	2
0	2553	518.783554183103	1
0	2554	518.783554183103	0
0	2565	521.550497248547	1
0	2566	521.611800501552	0
0	2593	527.632951476165	1
0	2594	527.890661757433	0
0	2611	533.070841500502	1
0	2612	533.124856823735	0
0	2649	540.333590757481	1
0	2650	540.523821790326	0
0	2662	541.887413576454	1
0	2663	542.211875156954	0
0	2670	542.643959677276	1
0	2671	542.658273018252	0
0	2678	543.244208990374	1
0	2679	543.248285677892	0
0	2686	543.615718527889	1
0	2687	543.973595256396	0
0	2694	545.440027932992	1
0	2695	545.805646122603	0
0	2702	546.195890899213	1
0	2703	546.360346817909	0
0	2735	551.895921569917	1
0	2736	552.251057598565	0
0	2743	554.68384080606	1
0	2744	554.782122297304	0
0	2751	555.173690015816	1
0	2752	555.285901784416	0
0	2774	561.468487526534	1
0	2775	561.729618140049	0
0	2787	562.841224585004	1
0	2789	563.047767073852	2
0	2790	563.16395713038	1
0	2792	563.16395713038	0
0	2813	566.559045718105	1
0	2814	566.865992289509	0
0	2841	572.109080040515	1
0	2843	572.35794429422	2
0	2844	572.433682228574	1
0	2846	572.433682228574	0
0	2852	572.860544467799	1
0	2854	572.912567970185	2
0	2857	573.490743332766	1
0	2858	573.490743332766	0
0	2869	575.131786240261	1
0	2871	575.229754107763	2
0	2872	575.504142737617	1
0	2874	575.504142737617	0
0	2890	578.012862330883	1
0	2891	578.144388949492	0
0	2908	580.446242765325	1
0	2909	580.57174410036	0
0	2926	583.524771590238	1
0	2928	583.563033569997	2
0	2929	583.726092883544	1
0	2931	583.726092883544	0
0	2937	583.944466656397	1
0	2938	584.203496041292	0
0	2950	587.897145271091	1
0	2951	588.029665983551	0
0	2963	589.491069092621	1
0	2965	589.503361645498	2
0	2967	589.629914178425	3
0	2969	589.646403328897	4
0	2970	589.760644018703	3
0	2972	589.760644018703	2
0	2973	589.760644018703	1
0	2974	589.760644018703	0
0	2985	596.468287843463	1
0	2986	596.617368092052	0
0	2993	597.555440850193	1
0	2994	597.823674825162	0
0	3016	602.816536432715	1
0	3017	603.179740578784	0
0	3034	606.066839749301	1
0	3035	606.209362893701	0
0	3042	607.160083548903	1
0	3043	607.287821890345	0
0	3050	608.637559348503	1
0	3051	608.833229291809	0
0	3063	610.597604675032	1
0	3064	610.932011723259	0
0	3071	614.518067482137	1
0	3072	614.67986739212	0
0	3094	622.473125363309	1
0	3095	622.702598196131	0
0	3107	625.346297427949	1
0	3108	625.557168129298	0
0	3140	633.813223300889	1
0	3142	633.873438946123	2
0	3143	634.047445131325	1
0	3145	634.047445131325	0
0	3166	637.16425209319	1
0	3167	637.256072144237	0
0	3179	639.325394283177	1
0	3180	639.524237098255	0
0	3189	640.632704371702	1
0	3191	640.644423857438	2
0	3193	640.669972976692	3
0	3194	640.735965741866	2
0	3195	640.735965741866	1
0	3196	640.735965741866	0
0	3202	641.55789939481	1
0	3203	641.766329877151	0
0	3215	643.656077122772	1
0	3216	643.812571504559	0
0	3228	646.353736448358	1
0	3230	646.59151402774	2
0	3231	646.716025670328	1
0	3233	646.716025670328	0
0	3254	651.974462201469	1
0	3255	652.238230790302	0
0	3262	652.823103900329	1
0	3263	652.919502666437	0
0	3270	654.440705351998	1
0	3271	654.441289878513	0
0	3280	655.072718777447	1
0	3281	655.446329432467	0
0	3288	658.613033481675	1
0	3289	658.816010020118	0
0	3296	660.011055624352	1
0	3297	660.241804607196	0
0	3304	661.041789280856	1
0	3305	661.371869528222	0
0	3312	662.257000425221	1
0	3313	662.294990881329	0
0	3330	666.788202332617	1
0	3331	666.798689403412	0
0	3353	669.538655834637	1
0	3354	669.72568011873	0
0	3376	675.70461107064	1
0	3377	675.883281666009	0
0	3404	679.092455592409	1
0	3405	679.437496762363	0
0	3417	681.646933723142	1
0	3418	681.649037414465	0
0	3425	681.94596662252	1
0	3427	682.115869603397	2
0	3428	682.280019059875	1
0	3430	682.280019059875	0
0	3436	682.931834748772	1
0	3438	683.05927961111	2
0	3439	683.317231215869	1
0	3441	683.317231215869	0
0	3447	683.718258365106	1
0	3449	683.96565377684	2
0	3450	684.068638882134	1
0	3452	684.068638882134	0
0	3458	685.847238544939	1
0	3459	686.100978933954	0
0	3466	686.483867650799	1
0	3468	686.522619822962	2
0	3469	686.574427725893	1
0	3471	686.574427725893	0
0	3482	689.353742329839	1
0	3483	689.67437719267	0
0	3510	700.5049527544	1
0	3511	700.597904827431	0
0	3530	704.568629489421	1
0	3531	704.674538854665	0
0	3537	704.933477581363	1
0	3538	705.142501140172	0
0	3545	707.482461612751	1
0	3546	707.62465942948	0
0	3568	710.209804320951	1
0	3569	710.250090115265	0
0	3576	710.839734432703	1
0	3578	710.96987557581	2
0	3579	711.230162066221	1
0	3581	711.230162066221	0
0	3597	718.289476582372	1
0	3598	718.426407841762	0
0	3605	719.336001508426	1
0	3606	719.605996851516	0
0	3613	721.465013625707	1
0	3614	721.605916622217	0
0	3636	725.375120135308	1
0	3637	725.585698741193	0
0	3659	728.998692132888	1
0	3660	729.083645954167	0
0	3672	731.495713795934	1
0	3673	731.655967952844	0
0	3700	736.329410692976	1
0	3701	736.701735114391	0
0	3723	740.311222443077	1
0	3724	740.616223972074	0
0	3731	741.995169559901	1
0	3732	742.134337068689	0
0	3739	744.773884824512	1
0	3740	745.024978179591	0
0	3752	746.48311014205	1
0	3753	746.741567914952	0
0	3790	753.42037216433	1
0	3791	753.801823268929	0
0	3839	764.526365638212	1
0	3841	764.767332034504	2
0	3842	764.900729349134	1
0	3844	764.900729349134	0
0	3860	769.800855524126	1
0	3862	769.806729861039	2
0	3863	770.021246201986	1
0	3865	770.021246201986	0
0	3886	775.705851316645	1
0	3887	775.786407001029	0
0	3894	777.224789606105	1
0	3895	777.258753699498	0
0	3902	778.172396771236	1
0	3903	778.32965223319	0
0	3930	786.760720683804	1
0	3932	787.050266049589	2
0	3933	787.080324749241	1
0	3935	787.080324749241	0
0	3951	793.620600486191	1
0	3952	793.992865100236	0
0	3964	796.009799660768	1
0	3965	796.400419342351	0
0	3972	797.204663653322	1
0	3974	797.506445481287	2
0	3975	797.55611594732	1
0	3977	797.55611594732	0
0	3983	798.170991435834	1
0	3985	798.217000553536	2
0	3987	798.388755076121	3
0	3988	798.441575545413	2
0	3990	798.441575545413	1
0	3991	798.441575545413	0
0	4017	803.401602995574	1
0	4018	803.515013235588	0
0	4025	804.195002586532	1
0	4026	804.229104658768	0
0	4033	805.78932447727	1
0	4035	805.974476165231	2
0	4036	806.013321124697	1
0	4038	806.013321124697	0
0	4044	806.647874148622	1
0	4045	806.981934683729	0
0	4052	809.715547294656	1
0	4054	809.826553489869	2
0	4055	809.939956255388	1
0	4057	809.939956255388	0
0	4063	812.182292783497	1
0	4064	812.572016244673	0
0	4091	816.963198429646	1
0	4092	817.243371027471	0
0	4099	819.263953792445	1
0	4100	819.371169930451	0
0	4117	823.453073391664	1
0	4118	823.778039045311	0
0	4125	825.460123695013	1
0	4126	825.46734619114	0
0	4133	827.362551902535	1
0	4134	827.421289521956	0
0	4146	830.258859716772	1
0	4147	830.345382400977	0
0	4169	836.711026540462	1
0	4170	837.064513526622	0
0	4183	840.390592125456	1
0	4185	840.563911341	2
0	4187	840.70357082358	3
0	4188	840.756811368709	2
0	4190	840.756811368709	1
0	4191	840.756811368709	0
0	4202	842.036621080611	1
0	4204	842.062312041324	2
0	4205	842.356050279756	1
0	4207	842.356050279756	0
0	4288	856.492027653659	1
0	4289	856.725065649161	0
0	4311	859.390982178829	1
0	4312	859.485737301437	0
0	4319	860.761692003461	1
0	4321	860.988411612126	2
0	4322	861.115917182449	1
0	4324	861.115917182449	0
0	4330	861.368506574101	1
0	4331	861.525376118412	0
0	4338	862.886621696299	1
0	4339	862.969170427625	0
0	4356	865.037193527079	1
0	4357	865.151012588662	0
0	4369	866.910488919645	1
0	4370	867.209855678646	0
0	4377	867.571389588396	1
0	4378	867.928338134319	0
0	4385	868.481879386159	1
0	4386	868.775935494043	0
0	4398	870.865970440276	1
0	4399	871.183216650767	0
0	4406	873.617905753878	1
0	4407	873.92626585759	0
0	4414	874.103641238618	1
0	4415	874.479470162698	0
0	4442	878.30768810762	1
0	4443	878.495496565989	0
0	4450	878.924586461583	1
0	4451	878.996286979065	0
0	4463	880.600727315802	1
0	4464	880.815142846538	0
0	4486	884.897311093944	1
0	4487	885.035854688447	0
0	4500	886.944808981889	1
0	4501	887.186911745019	0
0	4508	887.859037995375	1
0	4509	888.027725700133	0
0	4516	888.229104429226	1
0	4517	888.608760876478	0
0	4524	889.160481506913	1
0	4525	889.293553882274	0
0	4532	889.545504729753	1
0	4533	889.812418053207	0
0	4540	890.926275907769	1
0	4541	890.927950100613	0
0	4553	892.729820445884	1
0	4554	893.105686618007	0
0	4591	906.736096222653	1
0	4592	906.863773108904	0
0	4599	907.064595268026	1
0	4601	907.327775021111	2
0	4602	907.388122425349	1
0	4604	907.388122425349	0
0	4610	908.770948212441	1
0	4612	908.937276094696	2
0	4613	909.113895520615	1
0	4615	909.113895520615	0
0	4636	912.605415102342	1
0	4638	912.635219063791	2
0	4639	912.948462169596	1
0	4641	912.948462169596	0
0	4667	918.522252125043	1
0	4669	918.656571721248	2
0	4670	918.677824403781	1
0	4672	918.677824403781	0
0	4703	926.342043070886	1
0	4704	926.601274769585	0
0	4721	928.223958967183	1
0	4723	928.284354488297	2
0	4724	928.58333163767	1
0	4726	928.58333163767	0
0	4767	937.059627544689	1
0	4769	937.301902960737	2
0	4770	937.351172176699	1
0	4772	937.351172176699	0
0	4778	939.00011815749	1
0	4780	939.013855673738	2
0	4781	939.281753639342	1
0	4783	939.281753639342	0
0	4809	944.478295687221	1
0	4810	944.542584521707	0
0	4823	945.848038884328	1
0	4824	946.194161592847	0
0	4841	952.368961033881	1
0	4842	952.429144223196	0
0	4854	953.343626861265	1
0	4855	953.598727417269	0
0	4877	957.327832192808	1
0	4879	957.41295762625	2
0	4881	957.473631871946	3
0	4882	957.53127130558	2
0	4884	957.53127130558	1
0	4885	957.53127130558	0
0	4891	958.511336195416	1
0	4892	958.764828016225	0
0	4919	963.694624211987	1
0	4921	963.964302290038	2
0	4922	964.032018664042	1
0	4924	964.032018664042	0
0	4940	965.661824870158	1
0	4941	965.988591162747	0
0	4958	969.111854188234	1
0	4960	969.234642211584	2
0	4961	969.447782017112	1
0	4963	969.447782017112	0
0	4974	970.294925190942	1
0	4975	970.680041677541	0
0	4987	971.566744527785	1
0	4988	971.728288480951	0
0	5010	977.92467122476	1
0	5011	978.313708326074	0
0	5023	979.115543245176	1
0	5024	979.413850777658	0
0	5046	985.188235258163	1
0	5048	985.342234016256	2
0	5049	985.400255099071	1
0	5051	985.400255099071	0
0	5057	985.505800087328	1
0	5059	985.711130848306	2
0	5060	985.889602568523	1
0	5062	985.889602568523	0
0	5073	986.627125397165	1
0	5074	986.774666485521	0
0	5106	992.892597283114	1
0	5107	992.913875241201	0
0	5119	995.165144493987	1
0	5120	995.165414314284	0
0	5124	995.187520071531	1
0	5125	995.559624597717	0
0	5132	997.780962592288	1
0	5134	997.921213446075	2
0	5135	997.927044980405	1
0	5137	997.927044980405	0
1	6	1.009196229313	0.286298298657
1	16	2.079827579475	0.377369028421
1	18	2.079827579475	0.160549187082
1	25	3.587864016407	0.251162996732
1	37	4.419520647231	0.186933040491
1	39	4.419520647231	0.059279978373
1	40	4.419520647231	0.053989475936
1	51	5.665669725593	0.309329501148
1	53	5.665669725593	0.287185738448
1	54	5.665669725593	0.155005224431
1	76	10.07618799782	0.300735501536
1	91	11.838015579195	0.300897095798
1	93	11.838015579195	0.246084487162
1	122	18.67744187531	0.314916494285
1	124	18.67744187531	0.037939734644
1	151	30.619779625003	0.286976683313
1	161	31.727711172931	0.317705215562
1	163	31.727711172931	0.190476814845
1	175	34.891717698956	0.027439840535
1	193	37.28980604928	0.029845154486
1	211	42.840851846354	0.116447197891
1	219	44.169593881652	0.347300465206
1	227	45.571891958755	0.14962472231
1	245	49.924344451454	0.133750530076
1	273	54.757852288258	0.358198397638
1	281	55.680374746999	0.064881344346
1	289	57.268954577019	0.045226668301
1	317	62.311734126277	0.101855624946
1	356	69.676415828149	0.153188114236
1	369	73.187381984883	0.068368904003
1	427	82.436792115291	0.262508123485
1	435	84.794388069345	0.222660305031
1	458	91.00845298177	0.116705021488
1	476	95.728904243827	0.073453385073
1	489	103.606616612795	0.10292171117
1	522	115.764019991227	0.046441541951
1	530	117.10196613469	0.119495191475
1	540	118.567677667663	0.382188712204
1	542	118.567677667663	0.045083461347
1	556	121.690520046581	0.391654276507
1	558	121.690520046581	0.256095319728
1	570	123.382050828186	0.146818441833
1	588	125.006421423647	0.053830044227
1	596	126.103858454165	0.238333998335
1	621	130.996267545662	0.266083349952
1	623	130.996267545662	0.202938096893
1	630	131.516778795107	0.138061459644
1	638	131.968832487571	0.007845043701
1	648	132.788488582213	0.347764301675
1	660	137.025679817163	0.00879214632
1	675	139.508218247272	0.089456424375
1	677	139.508218247272	0.025890276002
1	714	148.229794400066	0.262903012244
1	737	154.503827400362	0.352134681627
1	765	157.226650815229	0.094285342515
1	773	157.632861516662	0.137317740763
1	796	162.501873053814	0.094093321811
1	811	163.673551943194	0.335130917225
1	813	163.673551943194	0.299437763089
1	820	165.544110179447	0.3115689277
1	840	170.518075923629	0.229901872578
1	842	170.518075923629	0.20358084311
1	854	174.501584891873	0.117757635828
1	904	185.967759790251	0.336329229786
1	906	185.967759790251	0.214835441635
1	918	188.288138664931	0.088732124157
1	926	189.54855175618	0.170920022194
1	939	190.851751962087	0.361249032909
1	947	192.795428164525	0.022360030329
1	962	195.551569350567	0.495440425157
1	969	197.880838435012	0.320567772909
1	982	199.653249187578	0.175443341117
1	1000	201.934184933125	0.299336146372
1	1023	205.093427803943	0.304061561239
1	1031	206.502633221279	0.119050863911
1	1039	208.556960896823	0.351261813864
1	1072	215.229664236853	0.075299217613
1	1080	216.207400617403	0.063536906353
1	1110	221.622226573397	0.014296064997
1	1112	221.622226573397	0.009099016576
1	1119	222.515269089335	0.073513435584
1	1129	223.302445596429	0.379243383521
1	1131	223.302445596429	0.344044529321
1	1148	225.843963749121	0.207141210737
1	1191	237.240055924542	0.182755920093
1	1214	241.105776625092	0.081600052421
1	1242	246.397455245227	0.183978600772
1	1260	250.160864917095	0.278163179672
1	1281	253.998893512113	0.373694175708
1	1283	253.998893512113	0.255586149091
1	1300	257.132137294845	0.374848677795
1	1319	258.98973899557	0.36061817025
1	1321	258.98973899557	0.214126196298
1	1322	258.98973899557	0.163439061484
1	1323	258.98973899557	0.041413926184
1	1357	266.692126586089	0.362565854725
1	1359	266.692126586089	0.089323161291
1	1381	277.173993629543	0.213404913014
1	1389	278.031962726752	0.386490123272
1	1399	279.22591027909	0.280601114205
1	1401	279.22591027909	0.27641864528
1	1418	282.03936244114	0.031981067478
1	1428	284.379003845249	0.331361323171
1	1430	284.379003845249	0.087410597664
1	1439	287.700408487362	0.293869679224
1	1441	287.700408487362	0.238392615234
1	1448	289.010516364617	0.13404962771
1	1478	294.533559998378	0.311774648556
1	1480	294.533559998378	0.035938293863
1	1492	296.411934766037	0.121693356304
1	1545	309.197950691577	0.056851319635
1	1558	312.205251191664	0.158960814055
1	1566	313.199322222769	0.287148873598
1	1574	315.383080109051	0.275321326542
1	1601	321.089959315457	0.428654890143
1	1602	321.089959315457	0.32823808366
1	1614	322.933517452642	0.14115925283
1	1647	329.237712396553	0.202799821079
1	1660	331.016730437861	0.308314029509
1	1668	331.647369850101	0.162207109557
1	1686	334.436779034822	0.062599631327
1	1694	335.083073210831	0.254301445472
1	1704	335.47987103164	0.359387445368
1	1706	335.47987103164	0.069748956793
1	1728	342.090746602271	0.00598796577
1	1746	345.004422204617	0.353642884018
1	1754	345.996316037618	0.130376983138
1	1762	346.620387093046	0.196740880012
1	1825	360.464743789712	0.314416811573
1	1840	363.318693603943	0.286640371172
1	1842	363.318693603943	0.071304676006
1	1856	368.143893199176	0.241521181421
1	1858	368.143893199176	0.222974033787
1	1865	368.551747219325	0.21382557742
1	1883	374.132750918245	0.149034747074
1	1917	383.906293378716	0.463442646752
1	1918	383.906293378716	0.270614584314
1	1919	383.906293378716	0.170936386504
1	1941	388.424118842557	0.121381943887
1	1954	389.540289597444	0.025399947079
1	1967	394.825966427798	0.085951003658
1	1975	396.53702200745	0.0647929678
1	1983	398.479746288118	0.184280462157
1	1991	399.311278306698	0.262353253334
1	2004	403.496861945133	0.318665253345
1	2039	411.380688263258	0.358844717627
1	2041	411.380688263258	0.090248389499
1	2068	415.259199208392	0.359854228417
1	2081	417.502457849828	0.252344030749
1	2114	429.094194056895	0.03102477856
1	2162	441.025793952558	0.380023238569
1	2170	442.530698146336	0.364456185883
1	2215	456.485490553112	0.618472432413
1	2232	461.487608707389	0.385760349564
1	2262	469.346153260174	0.386668408864
1	2264	469.346153260174	0.002841263324
1	2278	472.681948425082	0.317148905157
1	2280	472.681948425082	0.129847303816
1	2307	476.718073411498	0.123458071707
1	2325	478.760041070959	0.384489789613
1	2333	479.249761910904	0.325486722588
1	2341	480.292956355298	0.097574353025
1	2369	485.48253147821	0.375346514563
1	2377	486.136246016935	0.361291445939
1	2390	488.014752546965	0.168373724431
1	2408	493.093599911285	0.009567568931
1	2421	495.365793406505	0.237946947285
1	2436	496.896147064048	0.375508095654
1	2438	496.896147064048	0.114086648326
1	2450	499.277541821432	0.174142068457
1	2458	500.449389473985	0.351481787063
1	2466	501.686918848348	0.171125851499
1	2484	504.226287531311	0.301892561214
1	2522	515.58849590647	0.206994572211
1	2538	518.135765184077	0.205844542788
1	2540	518.135765184077	0.138188908837
1	2551	518.783554183103	0.29052624336
1	2553	518.783554183103	0.053992804825
1	2554	518.783554183103	0.015821047432
1	2566	521.611800501552	0.061303253005
1	2594	527.890661757433	0.257710281268
1	2612	533.124856823735	0.054015323233
1	2650	540.523821790326	0.190231032845
1	2663	542.211875156954	0.3244615805
1	2671	542.658273018252	0.014313340976
1	2679	543.248285677892	0.004076687518
1	2687	543.973595256396	0.357876728507
1	2695	545.805646122603	0.365618189611
1	2703	546.360346817909	0.164455918696
1	2736	552.251057598565	0.355136028648
1	2744	554.782122297304	0.098281491244
1	2752	555.285901784416	0.1122117686
1	2775	561.729618140049	0.261130613515
1	2790	563.16395713038	0.322732545376
1	2792	563.16395713038	0.116190056528
1	2814	566.865992289509	0.306946571404
1	2844	572.433682228574	0.324602188059
1	2846	572.433682228574	0.075737934354
1	2857	573.490743332766	0.630198864967
1	2858	573.490743332766	0.578175362581
1	2872	575.504142737617	0.372356497356
1	2874	575.504142737617	0.274388629854
1	2891	578.144388949492	0.131526618609
1	2909	580.57174410036	0.125501335035
1	2929	583.726092883544	0.201321293306
1	2931	583.726092883544	0.163059313547
1	2938	584.203496041292	0.259029384895
1	2951	588.029665983551	0.13252071246
1	2970	589.760644018703	0.269574926082
1	2972	589.760644018703	0.257282373205
1	2973	589.760644018703	0.130729840278
1	2974	589.760644018703	0.114240689806
1	2986	596.617368092052	0.149080248589
1	2994	597.823674825162	0.268233974969
1	3017	603.179740578784	0.363204146069
1	3035	606.209362893701	0.1425231444
1	3043	607.287821890345	0.127738341442
1	3051	608.833229291809	0.195669943306
1	3064	610.932011723259	0.334407048227
1	3072	614.67986739212	0.161799909983
1	3095	622.702598196131	0.229472832822
1	3108	625.557168129298	0.210870701349
1	3143	634.047445131325	0.234221830436
1	3145	634.047445131325	0.174006185202
1	3167	637.256072144237	0.091820051047
1	3180	639.524237098255	0.198842815078
1	3194	640.735965741866	0.103261370164
1	3195	640.735965741866	0.091541884428
1	3196	640.735965741866	0.065992765174
1	3203	641.766329877151	0.208430482341
1	3216	643.812571504559	0.156494381787
1	3231	646.716025670328	0.36228922197
1	3233	646.716025670328	0.124511642588
1	3255	652.238230790302	0.263768588833
1	3263	652.919502666437	0.096398766108
1	3271	654.441289878513	0.000584526515
1	3281	655.446329432467	0.37361065502
1	3289	658.816010020118	0.202976538443
1	3297	660.241804607196	0.230748982844
1	3305	661.371869528222	0.330080247366
1	3313	662.294990881329	0.037990456108
1	3331	666.798689403412	0.010487070795
1	3354	669.72568011873	0.187024284093
1	3377	675.883281666009	0.178670595369
1	3405	679.437496762363	0.345041169954
1	3418	681.649037414465	0.002103691323
1	3428	682.280019059875	0.334052437355
1	3430	682.280019059875	0.164149456478
1	3439	683.317231215869	0.385396467097
1	3441	683.317231215869	0.257951604759
1	3450	684.068638882134	0.350380517028
1	3452	684.068638882134	0.102985105294
1	3459	686.100978933954	0.253740389015
1	3469	686.574427725893	0.090560075094
1	3471	686.574427725893	0.051807902931
1	3483	689.67437719267	0.320634862831
1	3511	700.597904827431	0.092952073031
1	3531	704.674538854665	0.105909365244
1	3538	705.142501140172	0.209023558809
1	3546	707.62465942948	0.142197816729
1	3569	710.250090115265	0.040285794314
1	3579	711.230162066221	0.390427633518
1	3581	711.230162066221	0.260286490411
1	3598	718.426407841762	0.13693125939
1	3606	719.605996851516	0.26999534309
1	3614	721.605916622217	0.14090299651
1	3637	725.585698741193	0.210578605885
1	3660	729.083645954167	0.084953821279
1	3673	731.655967952844	0.16025415691
1	3701	736.701735114391	0.372324421415
1	3724	740.616223972074	0.305001528997
1	3732	742.134337068689	0.139167508788
1	3740	745.024978179591	0.251093355079
1	3753	746.741567914952	0.258457772902
1	3791	753.801823268929	0.381451104599
1	3842	764.900729349134	0.374363710922
1	3844	764.900729349134	0.13339731463
1	3863	770.021246201986	0.22039067786
1	3865	770.021246201986	0.214516340947
1	3887	775.786407001029	0.080555684384
1	3895	777.258753699498	0.033964093393
1	3903	778.32965223319	0.157255461954
1	3933	787.080324749241	0.319604065437
1	3935	787.080324749241	0.030058699652
1	3952	793.992865100236	0.372264614045
1	3965	796.400419342351	0.390619681583
1	3975	797.55611594732	0.351452293998
1	3977	797.55611594732	0.049670466033
1	3988	798.441575545413	0.270584109579
1	3990	798.441575545413	0.224574991877
1	3991	798.441575545413	0.052820469292
1	4018	803.515013235588	0.113410240014
1	4026	804.229104658768	0.034102072236
1	4036	806.013321124697	0.223996647427
1	4038	806.013321124697	0.038844959466
1	4045	806.981934683729	0.334060535107
1	4055	809.939956255388	0.224408960732
1	4057	809.939956255388	0.113402765519
1	4064	812.572016244673	0.389723461176
1	4092	817.243371027471	0.280172597825
1	4100	819.371169930451	0.107216138006
1	4118	823.778039045311	0.324965653647
1	4126	825.46734619114	0.007222496127
1	4134	827.421289521956	0.058737619421
1	4147	830.345382400977	0.086522684205
1	4170	837.064513526622	0.35348698616
1	4188	840.756811368709	0.366219243253
1	4190	840.756811368709	0.192900027709
1	4191	840.756811368709	0.053240545129
1	4205	842.356050279756	0.319429199145
1	4207	842.356050279756	0.293738238432
1	4289	856.725065649161	0.233037995502
1	4312	859.485737301437	0.094755122608
1	4322	861.115917182449	0.354225178988
1	4324	861.115917182449	0.127505570323
1	4331	861.525376118412	0.156869544311
1	4339	862.969170427625	0.082548731326
1	4357	865.151012588662	0.113819061583
1	4370	867.209855678646	0.299366759001
1	4378	867.928338134319	0.356948545923
1	4386	868.775935494043	0.294056107884
1	4399	871.183216650767	0.317246210491
1	4407	873.92626585759	0.308360103712
1	4415	874.479470162698	0.37582892408
1	4443	878.495496565989	0.187808458369
1	4451	878.996286979065	0.071700517482
1	4464	880.815142846538	0.214415530736
1	4487	885.035854688447	0.138543594503
1	4501	887.186911745019	0.24210276313
1	4509	888.027725700133	0.168687704758
1	4517	888.608760876478	0.379656447252
1	4525	889.293553882274	0.133072375361
1	4533	889.812418053207	0.266913323454
1	4541	890.927950100613	0.001674192844
1	4554	893.105686618007	0.375866172123
1	4592	906.863773108904	0.127676886251
1	4602	907.388122425349	0.323527157323
1	4604	907.388122425349	0.060347404238
1	4613	909.113895520615	0.342947308174
1	4615	909.113895520615	0.176619425919
1	4639	912.948462169596	0.343047067254
1	4641	912.948462169596	0.313243105805
1	4670	918.677824403781	0.155572278738
1	4672	918.677824403781	0.021252682533
1	4704	926.601274769585	0.259231698699
1	4724	928.58333163767	0.359372670487
1	4726	928.58333163767	0.298977149373
1	4770	937.351172176699	0.29154463201
1	4772	937.351172176699	0.049269215962
1	4781	939.281753639342	0.281635481852
1	4783	939.281753639342	0.267897965604
1	4810	944.542584521707	0.064288834486
1	4824	946.194161592847	0.346122708519
1	4842	952.429144223196	0.060183189315
1	4855	953.598727417269	0.255100556004
1	4882	957.53127130558	0.203439112772
1	4884	957.53127130558	0.11831367933
1	4885	957.53127130558	0.057639433634
1	4892	958.764828016225	0.253491820809
1	4922	964.032018664042	0.337394452055
1	4924	964.032018664042	0.067716374004
1	4941	965.988591162747	0.326766292589
1	4961	969.447782017112	0.335927828878
1	4963	969.447782017112	0.213139805528
1	4975	970.680041677541	0.385116486599
1	4988	971.728288480951	0.161543953166
1	5011	978.313708326074	0.389037101314
1	5024	979.413850777658	0.298307532482
1	5049	985.400255099071	0.212019840908
1	5051	985.400255099071	0.058021082815
1	5060	985.889602568523	0.383802481195
1	5062	985.889602568523	0.178471720217
1	5074	986.774666485521	0.147541088356
1	5107	992.913875241201	0.021277958087
1	5120	995.165414314284	0.000269820297
1	5125	995.559624597717	0.372104526186
1	5135	997.927044980405	0.146082388117
1	5137	997.927044980405	0.00583153433
2	7	1.009196229313	0.394210283433
2	17	2.079827579475	0.394210283433
2	26	3.587864016407	0.394210283433
2	38	4.419520647231	0.394210283433
2	52	5.665669725593	0.394210283433
2	60	7.224930251687	0.394210283433
2	65	7.763015950438	0.394210283433
2	70	9.677374729342	0.394210283433
2	77	10.07618799782	0.394210283433
2	83	11.305142561313	0.394210283433
2	92	11.838015579195	0.394210283433
2	99	13.319453378353	0.394210283433
2	104	14.014634704096	0.394210283433
2	109	15.384051226224	0.394210283433
2	114	17.307775453178	0.394210283433
2	123	18.67744187531	0.394210283433
2	130	19.875389615099	0.394210283433
2	135	25.283754294541	0.394210283433
2	140	25.750513846623	0.394210283433
2	145	26.378365265207	0.394210283433
2	152	30.619779625003	0.394210283433
2	162	31.727711172931	0.394210283433
2	169	34.302472591021	0.394210283433
2	176	34.891717698956	0.394210283433
2	182	36.133991620304	0.394210283433
2	187	36.543536952023	0.394210283433
2	194	37.28980604928	0.394210283433
2	200	37.690290059776	0.394210283433
2	205	40.89998729113	0.394210283433
2	212	42.840851846354	0.394210283433
2	220	44.169593881652	0.394210283433
2	228	45.571891958755	0.394210283433
2	234	47.67752666701	0.394210283433
2	239	49.217225751592	0.394210283433
2	246	49.924344451454	0.394210283433
2	252	50.475502900296	0.394210283433
2	257	51.287833401958	0.394210283433
2	262	52.034576291201	0.394210283433
2	267	54.194092572398	0.394210283433
2	274	54.757852288258	0.394210283433
2	282	55.680374746999	0.394210283433
2	290	57.268954577019	0.394210283433
2	296	58.018534886936	0.394210283433
2	301	60.130298829601	0.394210283433
2	306	60.552865303375	0.394210283433
2	311	61.795577337771	0.394210283433
2	318	62.311734126277	0.394210283433
2	324	63.083055760373	0.394210283433
2	329	64.450926014518	0.394210283433
2	334	65.365722915537	0.394210283433
2	340	66.727639513618	0.394210283433
2	345	68.464779114593	0.394210283433
2	350	69.059860663346	0.394210283433
2	357	69.676415828149	0.394210283433
2	363	72.689999356041	0.394210283433
2	370	73.187381984883	0.394210283433
2	376	73.746617773136	0.394210283433
2	381	74.93558439139	0.394210283433
2	386	75.337658231034	0.394210283433
2	391	76.060075913661	0.394210283433
2	396	77.123023091405	0.394210283433
2	401	77.59721459567	0.394210283433
2	406	78.366568579695	0.394210283433
2	411	80.28994888369	0.394210283433
2	416	80.743915910114	0.394210283433
2	421	81.496130208393	0.394210283433
2	428	82.436792115291	0.394210283433
2	436	84.794388069345	0.394210283433
2	442	87.636153649274	0.394210283433
2	447	89.481502398712	0.394210283433
2	452	90.423926691374	0.394210283433
2	459	91.00845298177	0.394210283433
2	465	93.487091960909	0.394210283433
2	470	94.10420664502	0.394210283433
2	477	95.728904243827	0.394210283433
2	483	97.439541761563	0.394210283433
2	490	103.606616612795	0.394210283433
2	496	105.862479910325	0.394210283433
2	501	107.191293454124	0.394210283433
2	506	108.141829360043	0.394210283433
2	511	108.536312400956	0.394210283433
2	516	112.444187266973	0.394210283433
2	523	115.764019991227	0.394210283433
2	531	117.10196613469	0.394210283433
2	541	118.567677667663	0.394210283433
2	548	120.599457859054	0.394210283433
2	557	121.690520046581	0.394210283433
2	564	122.598832983038	0.394210283433
2	571	123.382050828186	0.394210283433
2	577	124.000693970059	0.394210283433
2	582	124.460490957232	0.394210283433
2	589	125.006421423647	0.394210283433
2	597	126.103858454165	0.394210283433
2	603	127.751946989594	0.394210283433
2	608	128.313540710175	0.394210283433
2	613	129.274646726622	0.394210283433
2	622	130.996267545662	0.394210283433
2	631	131.516778795107	0.394210283433
2	639	131.968832487571	0.394210283433
2	647	132.517127129499	0.394210283433
2	654	134.888296859328	0.394210283433
2	661	137.025679817163	0.394210283433
2	667	137.592296217079	0.394210283433
2	676	139.508218247272	0.394210283433
2	683	141.208478677831	0.394210283433
2	688	143.007509747719	0.394210283433
2	693	143.540422173757	0.394210283433
2	698	146.022130918069	0.394210283433
2	703	146.766797812107	0.394210283433
2	708	147.617477437816	0.394210283433
2	715	148.229794400066	0.394210283433
2	721	149.929827567041	0.394210283433
2	726	151.044751034118	0.394210283433
2	731	152.464868422029	0.394210283433
2	738	154.503827400362	0.394210283433
2	744	155.140440864858	0.394210283433
2	749	155.85872749019	0.394210283433
2	754	156.317294932096	0.394210283433
2	759	156.731575699757	0.394210283433
2	766	157.226650815229	0.394210283433
2	774	157.632861516662	0.394210283433
2	780	158.144599339939	0.394210283433
2	785	158.569334141107	0.394210283433
2	790	161.502150874601	0.394210283433
2	797	162.501873053814	0.394210283433
2	803	163.268296337971	0.394210283433
2	812	163.673551943194	0.394210283433
2	821	165.544110179447	0.394210283433
2	827	166.454091810214	0.394210283433
2	832	167.953270737097	0.394210283433
2	841	170.518075923629	0.394210283433
2	848	172.844569583167	0.394210283433
2	855	174.501584891873	0.394210283433
2	861	175.063267818059	0.394210283433
2	866	175.695219792257	0.394210283433
2	871	177.428208752976	0.394210283433
2	876	177.84576988768	0.394210283433
2	881	178.341993863682	0.394210283433
2	886	182.654797009125	0.394210283433
2	891	183.318866941227	0.394210283433
2	896	184.256539478165	0.394210283433
2	905	185.967759790251	0.394210283433
2	912	187.394427575165	0.394210283433
2	919	188.288138664931	0.394210283433
2	927	189.54855175618	0.394210283433
2	933	190.079423453147	0.394210283433
2	940	190.851751962087	0.394210283433
2	948	192.795428164525	0.394210283433
2	954	194.286628356901	0.394210283433
2	961	195.280207897853	0.394210283433
2	970	197.880838435012	0.394210283433
2	976	199.197514762756	0.394210283433
2	983	199.653249187578	0.394210283433
2	989	200.26006876144	0.394210283433
2	994	201.060176202506	0.394210283433
2	1001	201.934184933125	0.394210283433
2	1007	202.379560755924	0.394210283433
2	1012	203.715868877242	0.394210283433
2	1017	204.57452806674	0.394210283433
2	1024	205.093427803943	0.394210283433
2	1032	206.502633221279	0.394210283433
2	1040	208.556960896823	0.394210283433
2	1046	209.409885461489	0.394210283433
2	1051	210.058009281796	0.394210283433
2	1056	212.228857365656	0.394210283433
2	1061	212.889310967398	0.394210283433
2	1066	214.379388928911	0.394210283433
2	1073	215.229664236853	0.394210283433
2	1081	216.207400617403	0.394210283433
2	1087	216.782269011507	0.394210283433
2	1092	217.243652240183	0.394210283433
2	1097	217.997174159626	0.394210283433
2	1102	218.9646050146	0.394210283433
2	1111	221.622226573397	0.394210283433
2	1120	222.515269089335	0.394210283433
2	1130	223.302445596429	0.394210283433
2	1137	224.71883882867	0.394210283433
2	1142	225.20309947016	0.394210283433
2	1149	225.843963749121	0.394210283433
2	1155	229.471459612927	0.394210283433
2	1160	229.943585201603	0.394210283433
2	1165	230.728225250649	0.394210283433
2	1170	231.867304595958	0.394210283433
2	1175	232.447963025969	0.394210283433
2	1180	234.130803074991	0.394210283433
2	1185	236.610026759168	0.394210283433
2	1192	237.240055924542	0.394210283433
2	1198	238.799571998706	0.394210283433
2	1203	239.242883462277	0.394210283433
2	1208	240.203471173657	0.394210283433
2	1215	241.105776625092	0.394210283433
2	1221	242.069893857431	0.394210283433
2	1226	243.242418235928	0.394210283433
2	1231	243.926057327626	0.394210283433
2	1236	245.97915968494	0.394210283433
2	1243	246.397455245227	0.394210283433
2	1249	247.356381132606	0.394210283433
2	1254	249.33778673211	0.394210283433
2	1261	250.160864917095	0.394210283433
2	1267	250.684666268697	0.394210283433
2	1273	252.421297338679	0.394210283433
2	1282	253.998893512113	0.394210283433
2	1289	254.661176195231	0.394210283433
2	1294	256.219215919117	0.394210283433
2	1301	257.132137294845	0.394210283433
2	1307	258.340349936015	0.394210283433
2	1320	258.98973899557	0.394210283433
2	1329	260.251735080794	0.394210283433
2	1334	260.665067026847	0.394210283433
2	1339	263.662023222789	0.394210283433
2	1344	264.209925325389	0.394210283433
2	1349	264.970509978377	0.394210283433
2	1358	266.692126586089	0.394210283433
2	1365	267.44144200332	0.394210283433
2	1370	272.557450252333	0.394210283433
2	1375	273.572025053811	0.394210283433
2	1382	277.173993629543	0.394210283433
2	1390	278.031962726752	0.394210283433
2	1400	279.22591027909	0.394210283433
2	1407	280.78961606124	0.394210283433
2	1412	281.207086985098	0.394210283433
2	1419	282.03936244114	0.394210283433
2	1429	284.379003845249	0.394210283433
2	1440	287.700408487362	0.394210283433
2	1449	289.010516364617	0.394210283433
2	1455	291.154118414539	0.394210283433
2	1460	292.196700484325	0.394210283433
2	1465	293.165104140117	0.394210283433
2	1470	293.704494077695	0.394210283433
2	1479	294.533559998378	0.394210283433
2	1486	295.552341826185	0.394210283433
2	1493	296.411934766037	0.394210283433
2	1499	296.859205403087	0.394210283433
2	1504	299.576953866126	0.394210283433
2	1509	300.631002797735	0.394210283433
2	1514	301.178886296108	0.394210283433
2	1519	302.024138589261	0.394210283433
2	1524	303.24114544771	0.394210283433
2	1529	303.853275123714	0.394210283433
2	1534	304.644131771636	0.394210283433
2	1539	306.112785286528	0.394210283433
2	1546	309.197950691577	0.394210283433
2	1552	310.178127937133	0.394210283433
2	1559	312.205251191664	0.394210283433
2	1567	313.199322222769	0.394210283433
2	1575	315.383080109051	0.394210283433
2	1581	316.266697641522	0.394210283433
2	1586	316.865700246301	0.394210283433
2	1591	317.616657491008	0.394210283433
2	1600	320.818597862743	0.394210283433
2	1608	321.588886934783	0.394210283433
2	1615	322.933517452642	0.394210283433
2	1621	325.499625467572	0.394210283433
2	1626	326.019806404009	0.394210283433
2	1631	326.489047550973	0.394210283433
2	1636	327.117032660648	0.394210283433
2	1641	327.613653832435	0.394210283433
2	1648	329.237712396553	0.394210283433
2	1654	330.413820416561	0.394210283433
2	1661	331.016730437861	0.394210283433
2	1669	331.647369850101	0.394210283433
2	1675	332.779952591591	0.394210283433
2	1680	333.592200782194	0.394210283433
2	1687	334.436779034822	0.394210283433
2	1695	335.083073210831	0.394210283433
2	1705	335.47987103164	0.394210283433
2	1712	336.042158618661	0.394210283433
2	1717	338.432170048762	0.394210283433
2	1722	341.281185481517	0.394210283433
2	1729	342.090746602271	0.394210283433
2	1735	342.99373114741	0.394210283433
2	1740	344.203527814923	0.394210283433
2	1747	345.004422204617	0.394210283433
2	1755	345.996316037618	0.394210283433
2	1763	346.620387093046	0.394210283433
2	1769	347.409899865238	0.394210283433
2	1774	348.478769380977	0.394210283433
2	1779	349.330618273984	0.394210283433
2	1784	351.203666006954	0.394210283433
2	1789	353.388528561329	0.394210283433
2	1794	354.078710223643	0.394210283433
2	1799	354.995798179092	0.394210283433
2	1804	356.039341681385	0.394210283433
2	1809	357.012501066544	0.394210283433
2	1814	357.845840888546	0.394210283433
2	1819	358.279594112706	0.394210283433
2	1826	360.464743789712	0.394210283433
2	1832	361.974044541334	0.394210283433
2	1841	363.318693603943	0.394210283433
2	1848	367.373119801445	0.394210283433
2	1857	368.143893199176	0.394210283433
2	1866	368.551747219325	0.394210283433
2	1872	369.391734248151	0.394210283433
2	1877	371.453222891407	0.394210283433
2	1884	374.132750918245	0.394210283433
2	1890	374.573837822951	0.394210283433
2	1895	376.554802512097	0.394210283433
2	1900	380.707715154951	0.394210283433
2	1905	383.050876119284	0.394210283433
2	1912	383.634931926002	0.394210283433
2	1925	384.994988392364	0.394210283433
2	1930	386.056171828902	0.394210283433
2	1935	386.943359713984	0.394210283433
2	1942	388.424118842557	0.394210283433
2	1948	388.864779837819	0.394210283433
2	1955	389.540289597444	0.394210283433
2	1961	390.858383693846	0.394210283433
2	1968	394.825966427798	0.394210283433
2	1976	396.53702200745	0.394210283433
2	1984	398.479746288118	0.394210283433
2	1992	399.311278306698	0.394210283433
2	1998	402.250878174075	0.394210283433
2	2005	403.496861945133	0.394210283433
2	2011	404.546878711557	0.394210283433
2	2016	405.283269343526	0.394210283433
2	2021	406.500827877741	0.394210283433
2	2026	407.499306572888	0.394210283433
2	2031	409.834224347651	0.394210283433
2	2040	411.380688263258	0.394210283433
2	2047	411.903626611972	0.394210283433
2	2052	412.512045620546	0.394210283433
2	2057	413.807218493082	0.394210283433
2	2062	414.669387561042	0.394210283433
2	2069	415.259199208392	0.394210283433
2	2075	416.441859569538	0.394210283433
2	2082	417.502457849828	0.394210283433
2	2088	420.11444007566	0.394210283433
2	2093	421.073095052912	0.394210283433
2	2098	422.020520136745	0.394210283433
2	2103	425.503386165472	0.394210283433
2	2108	427.99599775621	0.394210283433
2	2115	429.094194056895	0.394210283433
2	2121	429.561778243405	0.394210283433
2	2126	430.908794752567	0.394210283433
2	2131	431.704969269371	0.394210283433
2	2136	433.066317484442	0.394210283433
2	2141	434.262331637086	0.394210283433
2	2146	434.787744674985	0.394210283433
2	2151	435.490518797243	0.394210283433
2	2156	438.566845974967	0.394210283433
2	2163	441.025793952558	0.394210283433
2	2171	442.530698146336	0.394210283433
2	2177	443.725666791988	0.394210283433
2	2182	444.244781078038	0.394210283433
2	2187	446.272721196015	0.394210283433
2	2192	446.737498597535	0.394210283433
2	2197	447.614144382705	0.394210283433
2	2202	451.865259337193	0.394210283433
2	2207	452.587739363525	0.394210283433
2	2214	456.214129100398	0.394210283433
2	2221	458.538611336563	0.394210283433
2	2226	458.999639765782	0.394210283433
2	2233	461.487608707389	0.394210283433
2	2239	462.414928207323	0.394210283433
2	2244	465.912463446988	0.394210283433
2	2249	467.608415177695	0.394210283433
2	2254	468.502665305306	0.394210283433
2	2263	469.346153260174	0.394210283433
2	2270	470.955717514806	0.394210283433
2	2279	472.681948425082	0.394210283433
2	2286	473.935644767742	0.394210283433
2	2291	474.992618893463	0.394210283433
2	2296	475.409896314913	0.394210283433
2	2301	476.275429190478	0.394210283433
2	2308	476.718073411498	0.394210283433
2	2314	477.154724191592	0.394210283433
2	2319	477.803790434054	0.394210283433
2	2326	478.760041070959	0.394210283433
2	2334	479.249761910904	0.394210283433
2	2342	480.292956355298	0.394210283433
2	2348	481.461185409233	0.394210283433
2	2353	481.879914006678	0.394210283433
2	2358	482.292952006004	0.394210283433
2	2363	484.041631747705	0.394210283433
2	2370	485.48253147821	0.394210283433
2	2378	486.136246016935	0.394210283433
2	2384	486.531970195456	0.394210283433
2	2391	488.014752546965	0.394210283433
2	2397	488.657671510308	0.394210283433
2	2402	492.540822436536	0.394210283433
2	2409	493.093599911285	0.394210283433
2	2415	494.575018604055	0.394210283433
2	2422	495.365793406505	0.394210283433
2	2428	495.953437404815	0.394210283433
2	2437	496.896147064048	0.394210283433
2	2444	498.119648900361	0.394210283433
2	2451	499.277541821432	0.394210283433
2	2459	500.449389473985	0.394210283433
2	2467	501.686918848348	0.394210283433
2	2473	502.76010423121	0.394210283433
2	2478	503.510478666103	0.394210283433
2	2485	504.226287531311	0.394210283433
2	2491	505.54370669655	0.394210283433
2	2496	506.762263534086	0.394210283433
2	2501	507.855551799027	0.394210283433
2	2506	511.513726219407	0.394210283433
2	2511	512.943191894072	0.394210283433
2	2516	514.215305157654	0.394210283433
2	2523	515.58849590647	0.394210283433
2	2529	516.210779292543	0.394210283433
2	2539	518.135765184077	0.394210283433
2	2552	518.783554183103	0.394210283433
2	2560	520.150092128414	0.394210283433
2	2567	521.611800501552	0.394210283433
2	2573	522.979493566555	0.394210283433
2	2578	523.975352702451	0.394210283433
2	2583	526.125257201205	0.394210283433
2	2588	527.160413611214	0.394210283433
2	2595	527.890661757433	0.394210283433
2	2601	528.384662214686	0.394210283433
2	2606	529.286640236866	0.394210283433
2	2613	533.124856823735	0.394210283433
2	2619	535.424164725424	0.394210283433
2	2624	536.150670972669	0.394210283433
2	2629	536.782286496617	0.394210283433
2	2634	537.556961761873	0.394210283433
2	2639	539.539832847287	0.394210283433
2	2644	539.975665824945	0.394210283433
2	2651	540.523821790326	0.394210283433
2	2657	541.806068179579	0.394210283433
2	2664	542.211875156954	0.394210283433
2	2672	542.658273018252	0.394210283433
2	2680	543.248285677892	0.394210283433
2	2688	543.973595256396	0.394210283433
2	2696	545.805646122603	0.394210283433
2	2704	546.360346817909	0.394210283433
2	2710	547.39532504708	0.394210283433
2	2715	548.330095271151	0.394210283433
2	2720	549.081515386485	0.394210283433
2	2725	550.353901674518	0.394210283433
2	2730	551.582849021661	0.394210283433
2	2737	552.251057598565	0.394210283433
2	2745	554.782122297304	0.394210283433
2	2753	555.285901784416	0.394210283433
2	2759	556.208724132497	0.394210283433
2	2764	558.211032704059	0.394210283433
2	2769	558.96038416567	0.394210283433
2	2776	561.729618140049	0.394210283433
2	2782	562.238408766713	0.394210283433
2	2791	563.16395713038	0.394210283433
2	2798	564.213694893087	0.394210283433
2	2803	565.098018671646	0.394210283433
2	2808	565.605347811318	0.394210283433
2	2815	566.865992289509	0.394210283433
2	2821	567.278719226443	0.394210283433
2	2826	569.132948585508	0.394210283433
2	2831	569.867448562082	0.394210283433
2	2836	571.734120593777	0.394210283433
2	2845	572.433682228574	0.394210283433
2	2856	573.219381880052	0.394210283433
2	2864	574.41997954502	0.394210283433
2	2873	575.504142737617	0.394210283433
2	2880	576.958666566262	0.394210283433
2	2885	577.745651245337	0.394210283433
2	2892	578.144388949492	0.394210283433
2	2898	578.801008235071	0.394210283433
2	2903	579.973883393384	0.394210283433
2	2910	580.57174410036	0.394210283433
2	2916	582.001889698039	0.394210283433
2	2921	582.40056183411	0.394210283433
2	2930	583.726092883544	0.394210283433
2	2939	584.203496041292	0.394210283433
2	2945	585.499572914197	0.394210283433
2	2952	588.029665983551	0.394210283433
2	2958	588.931186022087	0.394210283433
2	2971	589.760644018703	0.394210283433
2	2980	591.715776318963	0.394210283433
2	2987	596.617368092052	0.394210283433
2	2995	597.823674825162	0.394210283433
2	3001	598.319985256166	0.394210283433
2	3006	599.211626848472	0.394210283433
2	3011	599.625273195745	0.394210283433
2	3018	603.179740578784	0.394210283433
2	3024	604.342592472139	0.394210283433
2	3029	605.380605713755	0.394210283433
2	3036	606.209362893701	0.394210283433
2	3044	607.287821890345	0.394210283433
2	3052	608.833229291809	0.394210283433
2	3058	609.807168432949	0.394210283433
2	3065	610.932011723259	0.394210283433
2	3073	614.67986739212	0.394210283433
2	3079	615.08178847131	0.394210283433
2	3084	616.821002063137	0.394210283433
2	3089	621.878886660568	0.394210283433
2	3096	622.702598196131	0.394210283433
2	3102	624.278800169801	0.394210283433
2	3109	625.557168129298	0.394210283433
2	3115	626.405122746391	0.394210283433
2	3120	626.994758114645	0.394210283433
2	3125	628.512929626138	0.394210283433
2	3130	629.875345802795	0.394210283433
2	3135	633.408444640177	0.394210283433
2	3144	634.047445131325	0.394210283433
2	3151	635.559757152443	0.394210283433
2	3156	635.978385909798	0.394210283433
2	3161	636.662592979717	0.394210283433
2	3168	637.256072144237	0.394210283433
2	3174	638.783278601397	0.394210283433
2	3181	639.524237098255	0.394210283433
2	3187	640.464604289152	0.394210283433
2	3204	641.766329877151	0.394210283433
2	3210	642.979651942596	0.394210283433
2	3217	643.812571504559	0.394210283433
2	3223	645.773444029083	0.394210283433
2	3232	646.716025670328	0.394210283433
2	3239	647.771140263229	0.394210283433
2	3244	649.725928422901	0.394210283433
2	3249	651.052879715416	0.394210283433
2	3256	652.238230790302	0.394210283433
2	3264	652.919502666437	0.394210283433
2	3272	654.441289878513	0.394210283433
2	3275	654.835500161946	0.394794809948
2	3282	655.446329432467	0.394210283433
2	3290	658.816010020118	0.394210283433
2	3298	660.241804607196	0.394210283433
2	3306	661.371869528222	0.394210283433
2	3314	662.294990881329	0.394210283433
2	3320	664.127410323222	0.394210283433
2	3325	665.24986969083	0.394210283433
2	3332	666.798689403412	0.394210283433
2	3338	667.757162495352	0.394210283433
2	3343	668.168922851953	0.394210283433
2	3348	668.799874895797	0.394210283433
2	3355	669.72568011873	0.394210283433
2	3361	672.517353648091	0.394210283433
2	3366	673.148159692255	0.394210283433
2	3371	674.163688683621	0.394210283433
2	3378	675.883281666009	0.394210283433
2	3384	676.52277272902	0.394210283433
2	3389	677.249207317552	0.394210283433
2	3394	678.056682831819	0.394210283433
2	3399	678.910751908523	0.394210283433
2	3406	679.437496762363	0.394210283433
2	3412	680.731788472463	0.394210283433
2	3419	681.649037414465	0.394210283433
2	3429	682.280019059875	0.394210283433
2	3440	683.317231215869	0.394210283433
2	3451	684.068638882134	0.394210283433
2	3460	686.100978933954	0.394210283433
2	3470	686.574427725893	0.394210283433
2	3477	687.732552081489	0.394210283433
2	3484	689.67437719267	0.394210283433
2	3490	691.739016269138	0.394210283433
2	3495	693.1787211831	0.394210283433
2	3500	696.761061386452	0.394210283433
2	3505	698.575735571502	0.394210283433
2	3512	700.597904827431	0.394210283433
2	3518	701.437799447472	0.394210283433
2	3523	703.939899199562	0.394210283433
2	3528	704.403177401951	0.394210283433
2	3539	705.142501140172	0.394210283433
2	3547	707.62465942948	0.394210283433
2	3553	708.349830613095	0.394210283433
2	3558	709.012060325714	0.394210283433
2	3563	709.594608085724	0.394210283433
2	3570	710.250090115265	0.394210283433
2	3580	711.230162066221	0.394210283433
2	3587	712.979870407067	0.394210283433
2	3592	717.232802775678	0.394210283433
2	3599	718.426407841762	0.394210283433
2	3607	719.605996851516	0.394210283433
2	3615	721.605916622217	0.394210283433
2	3621	723.009398268144	0.394210283433
2	3626	724.27748979443	0.394210283433
2	3631	725.029471118036	0.394210283433
2	3638	725.585698741193	0.394210283433
2	3644	725.980868840606	0.394210283433
2	3649	727.071319710476	0.394210283433
2	3654	728.034594183356	0.394210283433
2	3661	729.083645954167	0.394210283433
2	3667	730.764843259467	0.394210283433
2	3674	731.655967952844	0.394210283433
2	3680	733.031856324199	0.394210283433
2	3685	733.504817075357	0.394210283433
2	3690	733.903276793169	0.394210283433
2	3695	736.12589686141	0.394210283433
2	3702	736.701735114391	0.394210283433
2	3708	737.451852408501	0.394210283433
2	3713	738.931886189268	0.394210283433
2	3718	739.749002958852	0.394210283433
2	3725	740.616223972074	0.394210283433
2	3733	742.134337068689	0.394210283433
2	3741	745.024978179591	0.394210283433
2	3747	745.639065965295	0.394210283433
2	3754	746.741567914952	0.394210283433
2	3760	747.325844366118	0.394210283433
2	3765	749.64524784591	0.394210283433
2	3770	750.184210925748	0.394210283433
2	3775	751.513667697454	0.394210283433
2	3780	752.189227675516	0.394210283433
2	3785	753.297699454849	0.394210283433
2	3792	753.801823268929	0.394210283433
2	3798	755.876592919708	0.394210283433
2	3803	756.861971647336	0.394210283433
2	3808	758.013035824237	0.394210283433
2	3813	758.552212107367	0.394210283433
2	3818	759.665568401577	0.394210283433
2	3823	760.460840881843	0.394210283433
2	3828	762.106873637728	0.394210283433
2	3833	763.615433481863	0.394210283433
2	3843	764.900729349134	0.394210283433
2	3850	766.100714271931	0.394210283433
2	3855	768.071091708894	0.394210283433
2	3864	770.021246201986	0.394210283433
2	3871	773.235423744292	0.394210283433
2	3876	773.822842886051	0.394210283433
2	3881	775.141002463338	0.394210283433
2	3888	775.786407001029	0.394210283433
2	3896	777.258753699498	0.394210283433
2	3904	778.32965223319	0.394210283433
2	3910	779.877037890752	0.394210283433
2	3915	782.423009510328	0.394210283433
2	3920	783.170437987936	0.394210283433
2	3925	785.675544040907	0.394210283433
2	3934	787.080324749241	0.394210283433
2	3941	787.619118355499	0.394210283433
2	3946	790.85941384166	0.394210283433
2	3953	793.992865100236	0.394210283433
2	3959	795.061499396332	0.394210283433
2	3966	796.400419342351	0.394210283433
2	3976	797.55611594732	0.394210283433
2	3989	798.441575545413	0.394210283433
2	3997	799.601659045727	0.394210283433
2	4002	800.797277145397	0.394210283433
2	4007	801.194652659805	0.394210283433
2	4012	801.606323133985	0.394210283433
2	4019	803.515013235588	0.394210283433
2	4027	804.229104658768	0.394210283433
2	4037	806.013321124697	0.394210283433
2	4046	806.981934683729	0.394210283433
2	4056	809.939956255388	0.394210283433
2	4065	812.572016244673	0.394210283433
2	4071	813.627099974892	0.394210283433
2	4076	814.620471411862	0.394210283433
2	4081	815.098613430333	0.394210283433
2	4086	815.584363972037	0.394210283433
2	4093	817.243371027471	0.394210283433
2	4101	819.371169930451	0.394210283433
2	4107	821.0644214412	0.394210283433
2	4112	823.335198164046	0.394210283433
2	4119	823.778039045311	0.394210283433
2	4127	825.46734619114	0.394210283433
2	4135	827.421289521956	0.394210283433
2	4141	828.962798910942	0.394210283433
2	4148	830.345382400977	0.394210283433
2	4154	831.729915656955	0.394210283433
2	4159	832.712512289397	0.394210283433
2	4164	834.100616862138	0.394210283433
2	4171	837.064513526622	0.394210283433
2	4177	837.474148803185	0.394210283433
2	4189	840.756811368709	0.394210283433
2	4197	841.589697634706	0.394210283433
2	4206	842.356050279756	0.394210283433
2	4213	843.69507352398	0.394210283433
2	4218	844.74126108676	0.394210283433
2	4223	845.16016666167	0.394210283433
2	4228	846.744675937029	0.394210283433
2	4233	848.044497946254	0.394210283433
2	4238	848.487392642991	0.394210283433
2	4243	849.76444376382	0.394210283433
2	4248	850.673621956539	0.394210283433
2	4253	851.116312768891	0.394210283433
2	4258	852.740021908042	0.394210283433
2	4263	853.197455480797	0.394210283433
2	4268	853.869104023528	0.394210283433
2	4273	854.481947740084	0.394210283433
2	4278	855.13274348076	0.394210283433
2	4283	855.766414750845	0.394210283433
2	4290	856.725065649161	0.394210283433
2	4296	857.265573392064	0.394210283433
2	4301	857.834609104647	0.394210283433
2	4306	858.263414494638	0.394210283433
2	4313	859.485737301437	0.394210283433
2	4323	861.115917182449	0.394210283433
2	4332	861.525376118412	0.394210283433
2	4340	862.969170427625	0.394210283433
2	4346	863.507438715716	0.394210283433
2	4351	864.239211084347	0.394210283433
2	4358	865.151012588662	0.394210283433
2	4364	866.617950551008	0.394210283433
2	4371	867.209855678646	0.394210283433
2	4379	867.928338134319	0.394210283433
2	4387	868.775935494043	0.394210283433
2	4393	869.192991893231	0.394210283433
2	4400	871.183216650767	0.394210283433
2	4408	873.92626585759	0.394210283433
2	4416	874.479470162698	0.394210283433
2	4422	875.2285857652	0.394210283433
2	4427	876.516804584339	0.394210283433
2	4432	877.259246723529	0.394210283433
2	4437	877.694082013978	0.394210283433
2	4444	878.495496565989	0.394210283433
2	4452	878.996286979065	0.394210283433
2	4458	880.303233459394	0.394210283433
2	4465	880.815142846538	0.394210283433
2	4471	882.232552483366	0.394210283433
2	4476	882.754431125005	0.394210283433
2	4481	883.940078128148	0.394210283433
2	4488	885.035854688447	0.394210283433
2	4494	885.593350205982	0.394210283433
2	4502	887.186911745019	0.394210283433
2	4510	888.027725700133	0.394210283433
2	4518	888.608760876478	0.394210283433
2	4526	889.293553882274	0.394210283433
2	4534	889.812418053207	0.394210283433
2	4542	890.927950100613	0.394210283433
2	4548	891.974762000508	0.394210283433
2	4555	893.105686618007	0.394210283433
2	4561	894.057512297957	0.394210283433
2	4566	896.910114921729	0.394210283433
2	4571	900.26662818949	0.394210283433
2	4576	901.695400217727	0.394210283433
2	4581	905.239125841693	0.394210283433
2	4586	906.204105388343	0.394210283433
2	4593	906.863773108904	0.394210283433
2	4603	907.388122425349	0.394210283433
2	4614	909.113895520615	0.394210283433
2	4621	909.694766784544	0.394210283433
2	4626	911.390621358105	0.394210283433
2	4631	912.249741208245	0.394210283433
2	4640	912.948462169596	0.394210283433
2	4647	913.437327333631	0.394210283433
2	4652	914.527082418624	0.394210283433
2	4657	915.935888369661	0.394210283433
2	4662	918.027364098138	0.394210283433
2	4671	918.677824403781	0.394210283433
2	4678	920.401567858666	0.394210283433
2	4683	921.120037788661	0.394210283433
2	4688	924.217544761243	0.394210283433
2	4693	925.540423234253	0.394210283433
2	4698	926.187873002497	0.394210283433
2	4705	926.601274769585	0.394210283433
2	4711	927.044215919823	0.394210283433
2	4716	927.520069463721	0.394210283433
2	4725	928.58333163767	0.394210283433
2	4732	929.375233806436	0.394210283433
2	4737	931.037425186337	0.394210283433
2	4742	931.452291449616	0.394210283433
2	4747	931.894075455611	0.394210283433
2	4752	932.361484506698	0.394210283433
2	4757	935.093730432209	0.394210283433
2	4762	935.54522718897	0.394210283433
2	4771	937.351172176699	0.394210283433
2	4782	939.281753639342	0.394210283433
2	4789	940.036574737848	0.394210283433
2	4794	941.286558602052	0.394210283433
2	4799	942.944307815322	0.394210283433
2	4804	943.640559335137	0.394210283433
2	4811	944.542584521707	0.394210283433
2	4817	944.942734976089	0.394210283433
2	4825	946.194161592847	0.394210283433
2	4831	947.196811183572	0.394210283433
2	4836	948.16859440121	0.394210283433
2	4843	952.429144223196	0.394210283433
2	4849	953.040156756502	0.394210283433
2	4856	953.598727417269	0.394210283433
2	4862	955.197895081277	0.394210283433
2	4867	956.406104101101	0.394210283433
2	4872	957.045966098581	0.394210283433
2	4883	957.53127130558	0.394210283433
2	4893	958.764828016225	0.394210283433
2	4899	960.430697256483	0.394210283433
2	4904	961.324997789609	0.394210283433
2	4909	962.025913842122	0.394210283433
2	4914	963.470039265974	0.394210283433
2	4923	964.032018664042	0.394210283433
2	4930	964.627628279657	0.394210283433
2	4935	965.387042680486	0.394210283433
2	4942	965.988591162747	0.394210283433
2	4948	966.907901017463	0.394210283433
2	4953	968.512139839741	0.394210283433
2	4962	969.447782017112	0.394210283433
2	4969	970.255828459547	0.394210283433
2	4976	970.680041677541	0.394210283433
2	4982	971.240794925427	0.394210283433
2	4989	971.728288480951	0.394210283433
2	4995	973.14277699842	0.394210283433
2	5000	976.567618531784	0.394210283433
2	5005	977.569482709354	0.394210283433
2	5012	978.313708326074	0.394210283433
2	5018	978.711867406852	0.394210283433
2	5025	979.413850777658	0.394210283433
2	5031	980.937046184999	0.394210283433
2	5036	982.25527283948	0.394210283433
2	5041	984.144199235212	0.394210283433
2	5050	985.400255099071	0.394210283433
2	5061	985.889602568523	0.394210283433
2	5068	986.358520236352	0.394210283433
2	5075	986.774666485521	0.394210283433
2	5081	987.817045167836	0.394210283433
2	5086	989.32379799051	0.394210283433
2	5091	989.883268854968	0.394210283433
2	5096	991.225424376909	0.394210283433
2	5101	991.94194120587	0.394210283433
2	5108	992.913875241201	0.394210283433
2	5114	993.925703252182	0.394210283433
2	5121	995.165414314284	0.394210283433
2	5126	995.559624597717	0.39448010373
2	5136	997.927044980405	0.394210283433
2	5143	999.093111865796	0.394210283433
3	7	1.009196229313	0
3	17	2.079827579475	0
3	26	3.587864016407	0
3	38	4.419520647231	0
3	52	5.665669725593	0
3	60	7.224930251687	0
3	65	7.763015950438	0
3	70	9.677374729342	0
3	77	10.07618799782	0
3	83	11.305142561313	0
3	92	11.838015579195	0
3	99	13.319453378353	0
3	104	14.014634704096	0
3	109	15.384051226224	0
3	114	17.307775453178	0
3	123	18.67744187531	0
3	130	19.875389615099	0
3	135	25.283754294541	0
3	140	25.750513846623	0
3	145	26.378365265207	0
3	152	30.619779625003	0
3	162	31.727711172931	0
3	169	34.302472591021	0
3	176	34.891717698956	0
3	182	36.133991620304	0
3	187	36.543536952023	0
3	194	37.28980604928	0
3	200	37.690290059776	0
3	205	40.89998729113	0
3	212	42.840851846354	0
3	220	44.169593881652	0
3	228	45.571891958755	0
3	234	47.67752666701	0
3	239	49.217225751592	0
3	246	49.924344451454	0
3	252	50.475502900296	0
3	257	51.287833401958	0
3	262	52.034576291201	0
3	267	54.194092572398	0
3	274	54.757852288258	0
3	282	55.680374746999	0
3	290	57.268954577019	0
3	296	58.018534886936	0
3	301	60.130298829601	0
3	306	60.552865303375	0
3	311	61.795577337771	0
3	318	62.311734126277	0
3	324	63.083055760373	0
3	329	64.450926014518	0
3	334	65.365722915537	0
3	340	66.727639513618	0
3	345	68.464779114593	0
3	350	69.059860663346	0
3	357	69.676415828149	0
3	363	72.689999356041	0
3	370	73.187381984883	0
3	376	73.746617773136	0
3	381	74.93558439139	0
3	386	75.337658231034	0
3	391	76.060075913661	0
3	396	77.123023091405	0
3	401	77.59721459567	0
3	406	78.366568579695	0
3	411	80.28994888369	0
3	416	80.743915910114	0
3	421	81.496130208393	0
3	428	82.436792115291	0
3	436	84.794388069345	0
3	442	87.636153649274	0
3	447	89.481502398712	0
3	452	90.423926691374	0
3	459	91.00845298177	0
3	465	93.487091960909	0
3	470	94.10420664502	0
3	477	95.728904243827	0
3	483	97.439541761563	0
3	490	103.606616612795	0
3	496	105.862479910325	0
3	501	107.191293454124	0
3	506	108.141829360043	0
3	511	108.536312400956	0
3	516	112.444187266973	0
3	523	115.764019991227	0
3	531	117.10196613469	0
3	541	118.567677667663	0
3	548	120.599457859054	0
3	557	121.690520046581	0
3	564	122.598832983038	0
3	571	123.382050828186	0
3	577	124.000693970059	0
3	582	124.460490957232	0
3	589	125.006421423647	0
3	597	126.103858454165	0
3	603	127.751946989594	0
3	608	128.313540710175	0
3	613	129.274646726622	0
3	622	130.996267545662	0
3	631	131.516778795107	0
3	639	131.968832487571	0
3	647	132.517127129499	0
3	654	134.888296859328	0
3	661	137.025679817163	0
3	667	137.592296217079	0
3	676	139.508218247272	0
3	683	141.208478677831	0
3	688	143.007509747719	0
3	693	143.540422173757	0
3	698	146.022130918069	0
3	703	146.766797812107	0
3	708	147.617477437816	0
3	715	148.229794400066	0
3	721	149.929827567041	0
3	726	151.044751034118	0
3	731	152.464868422029	0
3	738	154.503827400362	0
3	744	155.140440864858	0
3	749	155.85872749019	0
3	754	156.317294932096	0
3	759	156.731575699757	0
3	766	157.226650815229	0
3	774	157.632861516662	0
3	780	158.144599339939	0
3	785	158.569334141107	0
3	790	161.502150874601	0
3	797	162.501873053814	0
3	803	163.268296337971	0
3	812	163.673551943194	0
3	821	165.544110179447	0
3	827	166.454091810214	0
3	832	167.953270737097	0
3	841	170.518075923629	0
3	848	172.844569583167	0
3	855	174.501584891873	0
3	861	175.063267818059	0
3	866	175.695219792257	0
3	871	177.428208752976	0
3	876	177.84576988768	0
3	881	178.341993863682	0
3	886	182.654797009125	0
3	891	183.318866941227	0
3	896	184.256539478165	0
3	905	185.967759790251	0
3	912	187.394427575165	0
3	919	188.288138664931	0
3	927	189.54855175618	0
3	933	190.079423453147	0
3	940	190.851751962087	0
3	948	192.795428164525	0
3	954	194.286628356901	0
3	961	195.280207897853	0
3	970	197.880838435012	0
3	976	199.197514762756	0
3	983	199.653249187578	0
3	989	200.26006876144	0
3	994	201.060176202506	0
3	1001	201.934184933125	0
3	1007	202.379560755924	0
3	1012	203.715868877242	0
3	1017	204.57452806674	0
3	1024	205.093427803943	0
3	1032	206.502633221279	0
3	1040	208.556960896823	0
3	1046	209.409885461489	0
3	1051	210.058009281796	0
3	1056	212.228857365656	0
3	1061	212.889310967398	0
3	1066	214.379388928911	0
3	1073	215.229664236853	0
3	1081	216.207400617403	0
3	1087	216.782269011507	0
3	1092	217.243652240183	0
3	1097	217.997174159626	0
3	1102	218.9646050146	0
3	1111	221.622226573397	0
3	1120	222.515269089335	0
3	1130	223.302445596429	0
3	1137	224.71883882867	0
3	1142	225.20309947016	0
3	1149	225.843963749121	0
3	1155	229.471459612927	0
3	1160	229.943585201603	0
3	1165	230.728225250649	0
3	1170	231.867304595958	0
3	1175	232.447963025969	0
3	1180	234.130803074991	0
3	1185	236.610026759168	0
3	1192	237.240055924542	0
3	1198	238.799571998706	0
3	1203	239.242883462277	0
3	1208	240.203471173657	0
3	1215	241.105776625092	0
3	1221	242.069893857431	0
3	1226	243.242418235928	0
3	1231	243.926057327626	0
3	1236	245.97915968494	0
3	1243	246.397455245227	0
3	1249	247.356381132606	0
3	1254	249.33778673211	0
3	1261	250.160864917095	0
3	1267	250.684666268697	0
3	1273	252.421297338679	0
3	1282	253.998893512113	0
3	1289	254.661176195231	0
3	1294	256.219215919117	0
3	1301	257.132137294845	0
3	1307	258.340349936015	0
3	1320	258.98973899557	0
3	1329	260.251735080794	0
3	1334	260.665067026847	0
3	1339	263.662023222789	0
3	1344	264.209925325389	0
3	1349	264.970509978377	0
3	1358	266.692126586089	0
3	1365	267.44144200332	0
3	1370	272.557450252333	0
3	1375	273.572025053811	0
3	1382	277.173993629543	0
3	1390	278.031962726752	0
3	1400	279.22591027909	0
3	1407	280.78961606124	0
3	1412	281.207086985098	0
3	1419	282.03936244114	0
3	1429	284.379003845249	0
3	1440	287.700408487362	0
3	1449	289.010516364617	0
3	1455	291.154118414539	0
3	1460	292.196700484325	0
3	1465	293.165104140117	0
3	1470	293.704494077695	0
3	1479	294.533559998378	0
3	1486	295.552341826185	0
3	1493	296.411934766037	0
3	1499	296.859205403087	0
3	1504	299.576953866126	0
3	1509	300.631002797735	0
3	1514	301.178886296108	0
3	1519	302.024138589261	0
3	1524	303.24114544771	0
3	1529	303.853275123714	0
3	1534	304.644131771636	0
3	1539	306.112785286528	0
3	1546	309.197950691577	0
3	1552	310.178127937133	0
3	1559	312.205251191664	0
3	1567	313.199322222769	0
3	1575	315.383080109051	0
3	1581	316.266697641522	0
3	1586	316.865700246301	0
3	1591	317.616657491008	0
3	1600	320.818597862743	0
3	1608	321.588886934783	0
3	1615	322.933517452642	0
3	1621	325.499625467572	0
3	1626	326.019806404009	0
3	1631	326.489047550973	0
3	1636	327.117032660648	0
3	1641	327.613653832435	0
3	1648	329.237712396553	0
3	1654	330.413820416561	0
3	1661	331.016730437861	0
3	1669	331.647369850101	0
3	1675	332.779952591591	0
3	1680	333.592200782194	0
3	1687	334.436779034822	0
3	1695	335.083073210831	0
3	1705	335.47987103164	0
3	1712	336.042158618661	0
3	1717	338.432170048762	0
3	1722	341.281185481517	0
3	1729	342.090746602271	0
3	1735	342.99373114741	0
3	1740	344.203527814923	0
3	1747	345.004422204617	0
3	1755	345.996316037618	0
3	1763	346.620387093046	0
3	1769	347.409899865238	0
3	1774	348.478769380977	0
3	1779	349.330618273984	0
3	1784	351.203666006954	0
3	1789	353.388528561329	0
3	1794	354.078710223643	0
3	1799	354.995798179092	0
3	1804	356.039341681385	0
3	1809	357.012501066544	0
3	1814	357.845840888546	0
3	1819	358.279594112706	0
3	1826	360.464743789712	0
3	1832	361.974044541334	0
3	1841	363.318693603943	0
3	1848	367.373119801445	0
3	1857	368.143893199176	0
3	1866	368.551747219325	0
3	1872	369.391734248151	0
3	1877	371.453222891407	0
3	1884	374.132750918245	0
3	1890	374.573837822951	0
3	1895	376.554802512097	0
3	1900	380.707715154951	0
3	1905	383.050876119284	0
3	1912	383.634931926002	0
3	1925	384.994988392364	0
3	1930	386.056171828902	0
3	1935	386.943359713984	0
3	1942	388.424118842557	0
3	1948	388.864779837819	0
3	1955	389.540289597444	0
3	1961	390.858383693846	0
3	1968	394.825966427798	0
3	1976	396.53702200745	0
3	1984	398.479746288118	0
3	1992	399.311278306698	0
3	1998	402.250878174075	0
3	2005	403.496861945133	0
3	2011	404.546878711557	0
3	2016	405.283269343526	0
3	2021	406.500827877741	0
3	2026	407.499306572888	0
3	2031	409.834224347651	0
3	2040	411.380688263258	0
3	2047	411.903626611972	0
3	2052	412.512045620546	0
3	2057	413.807218493082	0
3	2062	414.669387561042	0
3	2069	415.259199208392	0
3	2075	416.441859569538	0
3	2082	417.502457849828	0
3	2088	420.11444007566	0
3	2093	421.073095052912	0
3	2098	422.020520136745	0
3	2103	425.503386165472	0
3	2108	427.99599775621	0
3	2115	429.094194056895	0
3	2121	429.561778243405	0
3	2126	430.908794752567	0
3	2131	431.704969269371	0
3	2136	433.066317484442	0
3	2141	434.262331637086	0
3	2146	434.787744674985	0
3	2151	435.490518797243	0
3	2156	438.566845974967	0
3	2163	441.025793952558	0
3	2171	442.530698146336	0
3	2177	443.725666791988	0
3	2182	444.244781078038	0
3	2187	446.272721196015	0
3	2192	446.737498597535	0
3	2197	447.614144382705	0
3	2202	451.865259337193	0
3	2207	452.587739363525	0
3	2214	456.214129100398	0
3	2221	458.538611336563	0
3	2226	458.999639765782	0
3	2233	461.487608707389	0
3	2239	462.414928207323	0
3	2244	465.912463446988	0
3	2249	467.608415177695	0
3	2254	468.502665305306	0
3	2263	469.346153260174	0
3	2270	470.955717514806	0
3	2279	472.681948425082	0
3	2286	473.935644767742	0
3	2291	474.992618893463	0
3	2296	475.409896314913	0
3	2301	476.275429190478	0
3	2308	476.718073411498	0
3	2314	477.154724191592	0
3	2319	477.803790434054	0
3	2326	478.760041070959	0
3	2334	479.249761910904	0
3	2342	480.292956355298	0
3	2348	481.461185409233	0
3	2353	481.879914006678	0
3	2358	482.292952006004	0
3	2363	484.041631747705	0
3	2370	485.48253147821	0
3	2378	486.136246016935	0
3	2384	486.531970195456	0
3	2391	488.014752546965	0
3	2397	488.657671510308	0
3	2402	492.540822436536	0
3	2409	493.093599911285	0
3	2415	494.575018604055	0
3	2422	495.365793406505	0
3	2428	495.953437404815	0
3	2437	496.896147064048	0
3	2444	498.119648900361	0
3	2451	499.277541821432	0
3	2459	500.449389473985	0
3	2467	501.686918848348	0
3	2473	502.76010423121	0
3	2478	503.510478666103	0
3	2485	504.226287531311	0
3	2491	505.54370669655	0
3	2496	506.762263534086	0
3	2501	507.855551799027	0
3	2506	511.513726219407	0
3	2511	512.943191894072	0
3	2516	514.215305157654	0
3	2523	515.58849590647	0
3	2529	516.210779292543	0
3	2539	518.135765184077	0
3	2552	518.783554183103	0
3	2560	520.150092128414	0
3	2567	521.611800501552	0
3	2573	522.979493566555	0
3	2578	523.975352702451	0
3	2583	526.125257201205	0
3	2588	527.160413611214	0
3	2595	527.890661757433	0
3	2601	528.384662214686	0
3	2606	529.286640236866	0
3	2613	533.124856823735	0
3	2619	535.424164725424	0
3	2624	536.150670972669	0
3	2629	536.782286496617	0
3	2634	537.556961761873	0
3	2639	539.539832847287	0
3	2644	539.975665824945	0
3	2651	540.523821790326	0
3	2657	541.806068179579	0
3	2664	542.211875156954	0
3	2672	542.658273018252	0
3	2680	543.248285677892	0
3	2688	543.973595256396	0
3	2696	545.805646122603	0
3	2704	546.360346817909	0
3	2710	547.39532504708	0
3	2715	548.330095271151	0
3	2720	549.081515386485	0
3	2725	550.353901674518	0
3	2730	551.582849021661	0
3	2737	552.251057598565	0
3	2745	554.782122297304	0
3	2753	555.285901784416	0
3	2759	556.208724132497	0
3	2764	558.211032704059	0
3	2769	558.96038416567	0
3	2776	561.729618140049	0
3	2782	562.238408766713	0
3	2791	563.16395713038	0
3	2798	564.213694893087	0
3	2803	565.098018671646	0
3	2808	565.605347811318	0
3	2815	566.865992289509	0
3	2821	567.278719226443	0
3	2826	569.132948585508	0
3	2831	569.867448562082	0
3	2836	571.734120593777	0
3	2845	572.433682228574	0
3	2856	573.219381880052	0
3	2864	574.41997954502	0
3	2873	575.504142737617	0
3	2880	576.958666566262	0
3	2885	577.745651245337	0
3	2892	578.144388949492	0
3	2898	578.801008235071	0
3	2903	579.973883393384	0
3	2910	580.57174410036	0
3	2916	582.001889698039	0
3	2921	582.40056183411	0
3	2930	583.726092883544	0
3	2939	584.203496041292	0
3	2945	585.499572914197	0
3	2952	588.029665983551	0
3	2958	588.931186022087	0
3	2971	589.760644018703	0
3	2980	591.715776318963	0
3	2987	596.617368092052	0
3	2995	597.823674825162	0
3	3001	598.319985256166	0
3	3006	599.211626848472	0
3	3011	599.625273195745	0
3	3018	603.179740578784	0
3	3024	604.342592472139	0
3	3029	605.380605713755	0
3	3036	606.209362893701	0
3	3044	607.287821890345	0
3	3052	608.833229291809	0
3	3058	609.807168432949	0
3	3065	610.932011723259	0
3	3073	614.67986739212	0
3	3079	615.08178847131	0
3	3084	616.821002063137	0
3	3089	621.878886660568	0
3	3096	622.702598196131	0
3	3102	624.278800169801	0
3	3109	625.557168129298	0
3	3115	626.405122746391	0
3	3120	626.994758114645	0
3	3125	628.512929626138	0
3	3130	629.875345802795	0
3	3135	633.408444640177	0
3	3144	634.047445131325	0
3	3151	635.559757152443	0
3	3156	635.978385909798	0
3	3161	636.662592979717	0
3	3168	637.256072144237	0
3	3174	638.783278601397	0
3	3181	639.524237098255	0
3	3187	640.464604289152	0
3	3204	641.766329877151	0
3	3210	642.979651942596	0
3	3217	643.812571504559	0
3	3223	645.773444029083	0
3	3232	646.716025670328	0
3	3239	647.771140263229	0
3	3244	649.725928422901	0
3	3249	651.052879715416	0
3	3256	652.238230790302	0
3	3264	652.919502666437	0
3	3272	654.441289878513	0
3	3275	654.835500161946	0.000584526515
3	3282	655.446329432467	0
3	3290	658.816010020118	0
3	3298	660.241804607196	0
3	3306	661.371869528222	0
3	3314	662.294990881329	0
3	3320	664.127410323222	0
3	3325	665.24986969083	0
3	3332	666.798689403412	0
3	3338	667.757162495352	0
3	3343	668.168922851953	0
[...]
8	162	31.727711172931	0
8	169	34.302472591021	0
8	176	34.891717698956	0
8	182	36.133991620304	0
8	187	36.543536952023	0
8	194	37.28980604928	0
8	200	37.690290059776	0
8	205	40.89998729113	0
8	212	42.840851846354	0
8	220	44.169593881652	0
8	228	45.571891958755	0
8	234	47.67752666701	0
8	239	49.217225751592	0
8	246	49.924344451454	0
8	252	50.475502900296	0
8	257	51.287833401958	0
8	262	52.034576291201	0
8	267	54.194092572398	0
8	274	54.757852288258	0
8	282	55.680374746999	0
8	290	57.268954577019	0
8	296	58.018534886936	0
8	301	60.130298829601	0
8	306	60.552865303375	0
8	311	61.795577337771	0
8	318	62.311734126277	0
8	324	63.083055760373	0
8	329	64.450926014518	0
8	334	65.365722915537	0
8	340	66.727639513618	0
8	345	68.464779114593	0
8	350	69.059860663346	0
8	357	69.676415828149	0
8	363	72.689999356041	0
8	370	73.187381984883	0
8	376	73.746617773136	0
8	381	74.93558439139	0
8	386	75.337658231034	0
8	391	76.060075913661	0
8	396	77.123023091405	0
8	401	77.59721459567	0
8	406	78.366568579695	0
8	411	80.28994888369	0
8	416	80.743915910114	0
8	421	81.496130208393	0
8	428	82.436792115291	0
8	436	84.794388069345	0
8	442	87.636153649274	0
8	447	89.481502398712	0
8	452	90.423926691374	0
8	459	91.00845298177	0
8	465	93.487091960909	0
8	470	94.10420664502	0
8	477	95.728904243827	0
8	483	97.439541761563	0
8	490	103.606616612795	0
8	496	105.862479910325	0
8	501	107.191293454124	0
8	506	108.141829360043	0
8	511	108.536312400956	0
8	516	112.444187266973	0
8	523	115.764019991227	0
8	531	117.10196613469	0
8	541	118.567677667663	0
8	548	120.599457859054	0
8	557	121.690520046581	0
8	564	122.598832983038	0
8	571	123.382050828186	0
8	577	124.000693970059	0
8	582	124.460490957232	0
8	589	125.006421423647	0
8	597	126.103858454165	0
8	603	127.751946989594	0
8	608	128.313540710175	0
8	613	129.274646726622	0
8	622	130.996267545662	0
8	631	131.516778795107	0
8	639	131.968832487571	0
8	647	132.517127129499	0
8	654	134.888296859328	0
8	661	137.025679817163	0
8	667	137.592296217079	0
8	676	139.508218247272	0
8	683	141.208478677831	0
8	688	143.007509747719	0
8	693	143.540422173757	0
8	698	146.022130918069	0
8	703	146.766797812107	0
8	708	147.617477437816	0
8	715	148.229794400066	0
8	721	149.929827567041	0
8	726	151.044751034118	0
8	731	152.464868422029	0
8	738	154.503827400362	0
8	744	155.140440864858	0
8	749	155.85872749019	0
8	754	156.317294932096	0
8	759	156.731575699757	0
8	766	157.226650815229	0
8	774	157.632861516662	0
8	780	158.144599339939	0
8	785	158.569334141107	0
8	790	161.502150874601	0
8	797	162.501873053814	0
8	803	163.268296337971	0
8	812	163.673551943194	0
8	821	165.544110179447	0
8	827	166.454091810214	0
8	832	167.953270737097	0
8	841	170.518075923629	0
8	848	172.844569583167	0
8	855	174.501584891873	0
8	861	175.063267818059	0
8	866	175.695219792257	0
8	871	177.428208752976	0
8	876	177.84576988768	0
8	881	178.341993863682	0
8	886	182.654797009125	0
8	891	183.318866941227	0
8	896	184.256539478165	0
8	905	185.967759790251	0
8	912	187.394427575165	0
8	919	188.288138664931	0
8	927	189.54855175618	0
8	933	190.079423453147	0
8	940	190.851751962087	0
8	948	192.795428164525	0
8	954	194.286628356901	0
8	961	195.280207897853	0
8	970	197.880838435012	0
8	976	199.197514762756	0
8	983	199.653249187578	0
8	989	200.26006876144	0
8	994	201.060176202506	0
8	1001	201.934184933125	0
8	1007	202.379560755924	0
8	1012	203.715868877242	0
8	1017	204.57452806674	0
8	1024	205.093427803943	0
8	1032	206.502633221279	0
8	1040	208.556960896823	0
8	1046	209.409885461489	0
8	1051	210.058009281796	0
8	1056	212.228857365656	0
8	1061	212.889310967398	0
8	1066	214.379388928911	0
8	1073	215.229664236853	0
8	1081	216.207400617403	0
8	1087	216.782269011507	0
8	1092	217.243652240183	0
8	1097	217.997174159626	0
8	1102	218.9646050146	0
8	1111	221.622226573397	0
8	1120	222.515269089335	0
8	1130	223.302445596429	0
8	1137	224.71883882867	0
8	1142	225.20309947016	0
8	1149	225.843963749121	0
8	1155	229.471459612927	0
8	1160	229.943585201603	0
8	1165	230.728225250649	0
8	1170	231.867304595958	0
8	1175	232.447963025969	0
8	1180	234.130803074991	0
8	1185	236.610026759168	0
8	1192	237.240055924542	0
8	1198	238.799571998706	0
8	1203	239.242883462277	0
8	1208	240.203471173657	0
8	1215	241.105776625092	0
8	1221	242.069893857431	0
8	1226	243.242418235928	0
8	1231	243.926057327626	0
8	1236	245.97915968494	0
8	1243	246.397455245227	0
8	1249	247.356381132606	0
8	1254	249.33778673211	0
8	1261	250.160864917095	0
8	1267	250.684666268697	0
8	1273	252.421297338679	0
8	1282	253.998893512113	0
8	1289	254.661176195231	0
8	1294	256.219215919117	0
8	1301	257.132137294845	0
8	1307	258.340349936015	0
8	1320	258.98973899557	0
8	1329	260.251735080794	0
8	1334	260.665067026847	0
8	1339	263.662023222789	0
8	1344	264.209925325389	0
8	1349	264.970509978377	0
8	1358	266.692126586089	0
8	1365	267.44144200332	0
8	1370	272.557450252333	0
8	1375	273.572025053811	0
8	1382	277.173993629543	0
8	1390	278.031962726752	0
8	1400	279.22591027909	0
8	1407	280.78961606124	0
8	1412	281.207086985098	0
8	1419	282.03936244114	0
8	1429	284.379003845249	0
8	1440	287.700408487362	0
8	1449	289.010516364617	0
8	1455	291.154118414539	0
8	1460	292.196700484325	0
8	1465	293.165104140117	0
8	1470	293.704494077695	0
8	1479	294.533559998378	0
8	1486	295.552341826185	0
8	1493	296.411934766037	0
8	1499	296.859205403087	0
8	1504	299.576953866126	0
8	1509	300.631002797735	0
8	1514	301.178886296108	0
8	1519	302.024138589261	0
8	1524	303.24114544771	0
8	1529	303.853275123714	0
8	1534	304.644131771636	0
8	1539	306.112785286528	0
8	1546	309.197950691577	0
8	1552	310.178127937133	0
8	1559	312.205251191664	0
8	1567	313.199322222769	0
8	1575	315.383080109051	0
8	1581	316.266697641522	0
8	1586	316.865700246301	0
8	1591	317.616657491008	0
8	1600	320.818597862743	0
8	1608	321.588886934783	0
8	1615	322.933517452642	0
8	1621	325.499625467572	0
8	1626	326.019806404009	0
8	1631	326.489047550973	0
8	1636	327.117032660648	0
8	1641	327.613653832435	0
8	1648	329.237712396553	0
8	1654	330.413820416561	0
8	1661	331.016730437861	0
8	1669	331.647369850101	0
8	1675	332.779952591591	0
8	1680	333.592200782194	0
8	1687	334.436779034822	0
8	1695	335.083073210831	0
8	1705	335.47987103164	0
8	1712	336.042158618661	0
8	1717	338.432170048762	0
8	1722	341.281185481517	0
8	1729	342.090746602271	0
8	1735	342.99373114741	0
8	1740	344.203527814923	0
8	1747	345.004422204617	0
8	1755	345.996316037618	0
8	1763	346.620387093046	0
8	1769	347.409899865238	0
8	1774	348.478769380977	0
8	1779	349.330618273984	0
8	1784	351.203666006954	0
8	1789	353.388528561329	0
8	1794	354.078710223643	0
8	1799	354.995798179092	0
8	1804	356.039341681385	0
8	1809	357.012501066544	0
8	1814	357.845840888546	0
8	1819	358.279594112706	0
8	1826	360.464743789712	0
8	1832	361.974044541334	0
8	1841	363.318693603943	0
8	1848	367.373119801445	0
8	1857	368.143893199176	0
8	1866	368.551747219325	0
8	1872	369.391734248151	0
8	1877	371.453222891407	0
8	1884	374.132750918245	0
8	1890	374.573837822951	0
8	1895	376.554802512097	0
8	1900	380.707715154951	0
8	1905	383.050876119284	0
8	1912	383.634931926002	0
8	1925	384.994988392364	0
8	1930	386.056171828902	0
8	1935	386.943359713984	0
8	1942	388.424118842557	0
8	1948	388.864779837819	0
8	1955	389.540289597444	0
8	1961	390.858383693846	0
8	1968	394.825966427798	0
8	1976	396.53702200745	0
8	1984	398.479746288118	0
8	1992	399.311278306698	0
8	1998	402.250878174075	0
8	2005	403.496861945133	0
8	2011	404.546878711557	0
8	2016	405.283269343526	0
8	2021	406.500827877741	0
8	2026	407.499306572888	0
8	2031	409.834224347651	0
8	2040	411.380688263258	0
8	2047	411.903626611972	0
8	2052	412.512045620546	0
8	2057	413.807218493082	0
8	2062	414.669387561042	0
8	2069	415.259199208392	0
8	2075	416.441859569538	0
8	2082	417.502457849828	0
8	2088	420.11444007566	0
8	2093	421.073095052912	0
8	2098	422.020520136745	0
8	2103	425.503386165472	0
8	2108	427.99599775621	0
8	2115	429.094194056895	0
8	2121	429.561778243405	0
8	2126	430.908794752567	0
8	2131	431.704969269371	0
8	2136	433.066317484442	0
8	2141	434.262331637086	0
8	2146	434.787744674985	0
8	2151	435.490518797243	0
8	2156	438.566845974967	0
8	2163	441.025793952558	0
8	2171	442.530698146336	0
8	2177	443.725666791988	0
8	2182	444.244781078038	0
8	2187	446.272721196015	0
8	2192	446.737498597535	0
8	2197	447.614144382705	0
8	2202	451.865259337193	0
8	2207	452.587739363525	0
8	2214	456.214129100398	0
8	2221	458.538611336563	0
8	2226	458.999639765782	0
8	2233	461.487608707389	0
8	2239	462.414928207323	0
8	2244	465.912463446988	0
8	2249	467.608415177695	0
8	2254	468.502665305306	0
8	2263	469.346153260174	0
8	2270	470.955717514806	0
8	2279	472.681948425082	0
8	2286	473.935644767742	0
8	2291	474.992618893463	0
8	2296	475.409896314913	0
8	2301	476.275429190478	0
8	2308	476.718073411498	0
8	2314	477.154724191592	0
8	2319	477.803790434054	0
8	2326	478.760041070959	0
8	2334	479.249761910904	0
8	2342	480.292956355298	0
8	2348	481.461185409233	0
8	2353	481.879914006678	0
8	2358	482.292952006004	0
8	2363	484.041631747705	0
8	2370	485.48253147821	0
8	2378	486.136246016935	0
8	2384	486.531970195456	0
8	2391	488.014752546965	0
8	2397	488.657671510308	0
8	2402	492.540822436536	0
8	2409	493.093599911285	0
8	2415	494.575018604055	0
8	2422	495.365793406505	0
8	2428	495.953437404815	0
8	2437	496.896147064048	0
8	2444	498.119648900361	0
8	2451	499.277541821432	0
8	2459	500.449389473985	0
8	2467	501.686918848348	0
8	2473	502.76010423121	0
8	2478	503.510478666103	0
8	2485	504.226287531311	0
8	2491	505.54370669655	0
8	2496	506.762263534086	0
8	2501	507.855551799027	0
8	2506	511.513726219407	0
8	2511	512.943191894072	0
8	2516	514.215305157654	0
8	2523	515.58849590647	0
8	2529	516.210779292543	0
8	2539	518.135765184077	0
8	2552	518.783554183103	0
8	2560	520.150092128414	0
8	2567	521.611800501552	0
8	2573	522.979493566555	0
8	2578	523.975352702451	0
8	2583	526.125257201205	0
8	2588	527.160413611214	0
8	2595	527.890661757433	0
8	2601	528.384662214686	0
8	2606	529.286640236866	0
8	2613	533.124856823735	0
8	2619	535.424164725424	0
8	2624	536.150670972669	0
8	2629	536.782286496617	0
8	2634	537.556961761873	0
8	2639	539.539832847287	0
8	2644	539.975665824945	0
8	2651	540.523821790326	0
8	2657	541.806068179579	0
8	2664	542.211875156954	0
8	2672	542.658273018252	0
8	2680	543.248285677892	0
8	2688	543.973595256396	0
8	2696	545.805646122603	0
8	2704	546.360346817909	0
8	2710	547.39532504708	0
8	2715	548.330095271151	0
8	2720	549.081515386485	0
8	2725	550.353901674518	0
8	2730	551.582849021661	0
8	2737	552.251057598565	0
8	2745	554.782122297304	0
8	2753	555.285901784416	0
8	2759	556.208724132497	0
8	2764	558.211032704059	0
8	2769	558.96038416567	0
8	2776	561.729618140049	0
8	2782	562.238408766713	0
8	2791	563.16395713038	0
8	2798	564.213694893087	0
8	2803	565.098018671646	0
8	2808	565.605347811318	0
8	2815	566.865992289509	0
8	2821	567.278719226443	0
8	2826	569.132948585508	0
8	2831	569.867448562082	0
8	2836	571.734120593777	0
8	2845	572.433682228574	0
8	2856	573.219381880052	0
8	2864	574.41997954502	0
8	2873	575.504142737617	0
8	2880	576.958666566262	0
8	2885	577.745651245337	0
8	2892	578.144388949492	0
8	2898	578.801008235071	0
8	2903	579.973883393384	0
8	2910	580.57174410036	0
8	2916	582.001889698039	0
8	2921	582.40056183411	0
8	2930	583.726092883544	0
8	2939	584.203496041292	0
8	2945	585.499572914197	0
8	2952	588.029665983551	0
8	2958	588.931186022087	0
8	2971	589.760644018703	0
8	2980	591.715776318963	0
8	2987	596.617368092052	0
8	2995	597.823674825162	0
8	3001	598.319985256166	0
8	3006	599.211626848472	0
8	3011	599.625273195745	0
8	3018	603.179740578784	0
8	3024	604.342592472139	0
8	3029	605.380605713755	0
8	3036	606.209362893701	0
8	3044	607.287821890345	0
8	3052	608.833229291809	0
8	3058	609.807168432949	0
8	3065	610.932011723259	0
8	3073	614.67986739212	0
8	3079	615.08178847131	0
8	3084	616.821002063137	0
8	3089	621.878886660568	0
8	3096	622.702598196131	0
8	3102	624.278800169801	0
8	3109	625.557168129298	0
8	3115	626.405122746391	0
8	3120	626.994758114645	0
8	3125	628.512929626138	0
8	3130	629.875345802795	0
8	3135	633.408444640177	0
8	3144	634.047445131325	0
8	3151	635.559757152443	0
8	3156	635.978385909798	0
8	3161	636.662592979717	0
8	3168	637.256072144237	0
8	3174	638.783278601397	0
8	3181	639.524237098255	0
8	3187	640.464604289152	0
8	3204	641.766329877151	0
8	3210	642.979651942596	0
8	3217	643.812571504559	0
8	3223	645.773444029083	0
8	3232	646.716025670328	0
8	3239	647.771140263229	0
8	3244	649.725928422901	0
8	3249	651.052879715416	0
8	3256	652.238230790302	0
8	3264	652.919502666437	0
8	3272	654.441289878513	0
8	3275	654.835500161946	0
8	3282	655.446329432467	0
8	3290	658.816010020118	0
8	3298	660.241804607196	0
8	3306	661.371869528222	0
8	3314	662.294990881329	0
8	3320	664.127410323222	0
8	3325	665.24986969083	0
8	3332	666.798689403412	0
8	3338	667.757162495352	0
8	3343	668.168922851953	0
8	3348	668.799874895797	0
8	3355	669.72568011873	0
8	3361	672.517353648091	0
8	3366	673.148159692255	0
8	3371	674.163688683621	0
8	3378	675.883281666009	0
8	3384	676.52277272902	0
8	3389	677.249207317552	0
8	3394	678.056682831819	0
8	3399	678.910751908523	0
8	3406	679.437496762363	0
8	3412	680.731788472463	0
8	3419	681.649037414465	0
8	3429	682.280019059875	0
8	3440	683.317231215869	0
8	3451	684.068638882134	0
8	3460	686.100978933954	0
8	3470	686.574427725893	0
8	3477	687.732552081489	0
8	3484	689.67437719267	0
8	3490	691.739016269138	0
8	3495	693.1787211831	0
8	3500	696.761061386452	0
8	3505	698.575735571502	0
8	3512	700.597904827431	0
8	3518	701.437799447472	0
8	3523	703.939899199562	0
8	3528	704.403177401951	0
8	3539	705.142501140172	0
8	3547	707.62465942948	0
8	3553	708.349830613095	0
8	3558	709.012060325714	0
8	3563	709.594608085724	0
8	3570	710.250090115265	0
8	3580	711.230162066221	0
8	3587	712.979870407067	0
8	3592	717.232802775678	0
8	3599	718.426407841762	0
8	3607	719.605996851516	0
8	3615	721.605916622217	0
8	3621	723.009398268144	0
8	3626	724.27748979443	0
8	3631	725.029471118036	0
8	3638	725.585698741193	0
8	3644	725.980868840606	0
8	3649	727.071319710476	0
8	3654	728.034594183356	0
8	3661	729.083645954167	0
8	3667	730.764843259467	0
8	3674	731.655967952844	0
8	3680	733.031856324199	0
8	3685	733.504817075357	0
8	3690	733.903276793169	0
8	3695	736.12589686141	0
8	3702	736.701735114391	0
8	3708	737.451852408501	0
8	3713	738.931886189268	0
8	3718	739.749002958852	0
8	3725	740.616223972074	0
8	3733	742.134337068689	0
8	3741	745.024978179591	0
8	3747	745.639065965295	0
8	3754	746.741567914952	0
8	3760	747.325844366118	0
8	3765	749.64524784591	0
8	3770	750.184210925748	0
8	3775	751.513667697454	0
8	3780	752.189227675516	0
8	3785	753.297699454849	0
8	3792	753.801823268929	0
8	3798	755.876592919708	0
8	3803	756.861971647336	0
8	3808	758.013035824237	0
8	3813	758.552212107367	0
8	3818	759.665568401577	0
8	3823	760.460840881843	0
8	3828	762.106873637728	0
8	3833	763.615433481863	0
8	3843	764.900729349134	0
8	3850	766.100714271931	0
8	3855	768.071091708894	0
8	3864	770.021246201986	0
8	3871	773.235423744292	0
8	3876	773.822842886051	0
8	3881	775.141002463338	0
8	3888	775.786407001029	0
8	3896	777.258753699498	0
8	3904	778.32965223319	0
8	3910	779.877037890752	0
8	3915	782.423009510328	0
8	3920	783.170437987936	0
8	3925	785.675544040907	0
8	3934	787.080324749241	0
8	3941	787.619118355499	0
8	3946	790.85941384166	0
8	3953	793.992865100236	0
8	3959	795.061499396332	0
8	3966	796.400419342351	0
8	3976	797.55611594732	0
8	3989	798.441575545413	0
8	3997	799.601659045727	0
8	4002	800.797277145397	0
8	4007	801.194652659805	0
8	4012	801.606323133985	0
8	4019	803.515013235588	0
8	4027	804.229104658768	0
8	4037	806.013321124697	0
8	4046	806.981934683729	0
8	4056	809.939956255388	0
8	4065	812.572016244673	0
8	4071	813.627099974892	0
8	4076	814.620471411862	0
8	4081	815.098613430333	0
8	4086	815.584363972037	0
8	4093	817.243371027471	0
8	4101	819.371169930451	0
8	4107	821.0644214412	0
8	4112	823.335198164046	0
8	4119	823.778039045311	0
8	4127	825.46734619114	0
8	4135	827.421289521956	0
8	4141	828.962798910942	0
8	4148	830.345382400977	0
8	4154	831.729915656955	0
8	4159	832.712512289397	0
8	4164	834.100616862138	0
8	4171	837.064513526622	0
8	4177	837.474148803185	0
8	4189	840.756811368709	0
8	4197	841.589697634706	0
8	4206	842.356050279756	0
8	4213	843.69507352398	0
8	4218	844.74126108676	0
8	4223	845.16016666167	0
8	4228	846.744675937029	0
8	4233	848.044497946254	0
8	4238	848.487392642991	0
8	4243	849.76444376382	0
8	4248	850.673621956539	0
8	4253	851.116312768891	0
8	4258	852.740021908042	0
8	4263	853.197455480797	0
8	4268	853.869104023528	0
8	4273	854.481947740084	0
8	4278	855.13274348076	0
8	4283	855.766414750845	0
8	4290	856.725065649161	0
8	4296	857.265573392064	0
8	4301	857.834609104647	0
8	4306	858.263414494638	0
8	4313	859.485737301437	0
8	4323	861.115917182449	0
8	4332	861.525376118412	0
8	4340	862.969170427625	0
8	4346	863.507438715716	0
8	4351	864.239211084347	0
8	4358	865.151012588662	0
8	4364	866.617950551008	0
8	4371	867.209855678646	0
8	4379	867.928338134319	0
8	4387	868.775935494043	0
8	4393	869.192991893231	0
8	4400	871.183216650767	0
8	4408	873.92626585759	0
8	4416	874.479470162698	0
8	4422	875.2285857652	0
8	4427	876.516804584339	0
8	4432	877.259246723529	0
8	4437	877.694082013978	0
8	4444	878.495496565989	0
8	4452	878.996286979065	0
8	4458	880.303233459394	0
8	4465	880.815142846538	0
8	4471	882.232552483366	0
8	4476	882.754431125005	0
8	4481	883.940078128148	0
8	4488	885.035854688447	0
8	4494	885.593350205982	0
8	4502	887.186911745019	0
8	4510	888.027725700133	0
8	4518	888.608760876478	0
8	4526	889.293553882274	0
8	4534	889.812418053207	0
8	4542	890.927950100613	0
8	4548	891.974762000508	0
8	4555	893.105686618007	0
8	4561	894.057512297957	0
8	4566	896.910114921729	0
8	4571	900.26662818949	0
8	4576	901.695400217727	0
8	4581	905.239125841693	0
8	4586	906.204105388343	0
8	4593	906.863773108904	0
8	4603	907.388122425349	0
8	4614	909.113895520615	0
8	4621	909.694766784544	0
8	4626	911.390621358105	0
8	4631	912.249741208245	0
8	4640	912.948462169596	0
8	4647	913.437327333631	0
8	4652	914.527082418624	0
8	4657	915.935888369661	0
8	4662	918.027364098138	0
8	4671	918.677824403781	0
8	4678	920.401567858666	0
8	4683	921.120037788661	0
8	4688	924.217544761243	0
8	4693	925.540423234253	0
8	4698	926.187873002497	0
8	4705	926.601274769585	0
8	4711	927.044215919823	0
8	4716	927.520069463721	0
8	4725	928.58333163767	0
8	4732	929.375233806436	0
8	4737	931.037425186337	0
8	4742	931.452291449616	0
8	4747	931.894075455611	0
8	4752	932.361484506698	0
8	4757	935.093730432209	0
8	4762	935.54522718897	0
8	4771	937.351172176699	0
8	4782	939.281753639342	0
8	4789	940.036574737848	0
8	4794	941.286558602052	0
8	4799	942.944307815322	0
8	4804	943.640559335137	0
8	4811	944.542584521707	0
8	4817	944.942734976089	0
8	4825	946.194161592847	0
8	4831	947.196811183572	0
8	4836	948.16859440121	0
8	4843	952.429144223196	0
8	4849	953.040156756502	0
8	4856	953.598727417269	0
8	4862	955.197895081277	0
8	4867	956.406104101101	0
8	4872	957.045966098581	0
8	4883	957.53127130558	0
8	4893	958.764828016225	0
8	4899	960.430697256483	0
8	4904	961.324997789609	0
8	4909	962.025913842122	0
8	4914	963.470039265974	0
8	4923	964.032018664042	0
8	4930	964.627628279657	0
8	4935	965.387042680486	0
8	4942	965.988591162747	0
8	4948	966.907901017463	0
8	4953	968.512139839741	0
8	4962	969.447782017112	0
8	4969	970.255828459547	0
8	4976	970.680041677541	0
8	4982	971.240794925427	0
8	4989	971.728288480951	0
8	4995	973.14277699842	0
8	5000	976.567618531784	0
8	5005	977.569482709354	0
8	5012	978.313708326074	0
8	5018	978.711867406852	0
8	5025	979.413850777658	0
8	5031	980.937046184999	0
8	5036	982.25527283948	0
8	5041	984.144199235212	0
8	5050	985.400255099071	0
8	5061	985.889602568523	0
8	5068	986.358520236352	0
8	5075	986.774666485521	0
8	5081	987.817045167836	0
8	5086	989.32379799051	0
8	5091	989.883268854968	0
8	5096	991.225424376909	0
8	5101	991.94194120587	0
8	5108	992.913875241201	0
8	5114	993.925703252182	0
8	5121	995.165414314284	0
8	5126	995.559624597717	0
8	5136	997.927044980405	0
8	5143	999.093111865796	0

