version 2
run General-328-20240201-11:04:27-40057
attr configname General
attr datetime 20240201-11:04:27
attr experiment General
attr inifile main.ini
attr iterationvars "$0=1.2, $1=3.5, $2=50"
attr iterationvarsf 1.2,3.5,50-
attr measurement "$0=1.2, $1=3.5, $2=50"
attr network Rete
attr processid 40057
attr repetition 8
attr replication #8
attr resultdir results
attr runnumber 328
attr seedset 328
param Rete.lambda 1.2
param Rete.a 0.3s
param Rete.b 3.5s
param Rete.c 0.1s
param Rete.d 0.3s
param Rete.mu 3.0
param Rete.source2.interArrivalTime exponential(1s/lambda)
param Rete.source2.jobServiceTime exponential(1s/mu)
param Rete.source2.deadline uniform(a,b)
param Rete.server2.j 50
param Rete.server2.V uniform(c,d)

vector 0 Rete.passiveQueue queueLength:vector ETV
attr interpolationmode sample-hold
attr title "queue length, vector"
vector 1 Rete.passiveQueue queueingTime:vector ETV
attr interpolationmode none
attr title "queueing time at dequeue, vector"
attr unit s
vector 2 Rete.sink lifeTime:vector ETV
attr interpolationmode none
attr title "lifetime of arrived jobs, vector"
attr unit s
vector 3 Rete.sink totalQueueingTime:vector ETV
attr interpolationmode none
attr title "the total time spent in queues by arrived jobs, vector"
attr unit s
vector 4 Rete.sink queuesVisited:vector ETV
attr interpolationmode none
attr title "the total number of queues visited by arrived jobs, vector"
vector 5 Rete.sink totalServiceTime:vector ETV
attr interpolationmode none
attr title "the total time spent  by arrived jobs, vector"
attr unit s
vector 6 Rete.sink totalDelayTime:vector ETV
attr interpolationmode none
attr title "the total time spent in delay nodes by arrived jobs, vector"
attr unit s
vector 7 Rete.sink delaysVisited:vector ETV
attr interpolationmode none
attr title "the total number of delays visited by arrived jobs, vector"
vector 8 Rete.sink generation:vector ETV
attr interpolationmode none
attr title "the generation of the arrived jobs, vector"
0	0	0	0
0	5	0.307603381129	1
0	6	0.329879137968	0
0	30	3.710678660138	1
0	31	3.761096731706	0
0	40	5.251877497103	1
0	41	5.294944440713	0
0	60	11.028006541615	1
0	61	11.119227293297	0
0	75	13.204951156481	1
0	76	13.247162134503	0
0	170	25.388354803181	1
0	171	25.416003388509	0
0	195	30.299803134569	1
0	196	30.301650993033	0
0	200	30.337096453361	1
0	201	30.399981209804	0
0	301	48.771209644244	1
0	302	48.787167238975	0
0	411	74.439161437746	1
0	412	74.454826469823	0
0	436	75.861663311873	1
0	437	75.959168933116	0
0	522	92.965692382057	1
0	523	93.025525555553	0
0	532	93.930081693517	1
0	533	93.960665301608	0
0	848	150.78471156661	1
0	849	150.860609885089	0
0	868	154.014064790268	1
0	869	154.031170137275	0
0	898	157.376894776068	1
0	899	157.452985095643	0
0	923	160.487859872998	1
0	924	160.532550728892	0
0	978	170.312359085091	1
0	980	170.388547158489	2
0	982	170.409416454821	3
0	983	170.410339050591	2
0	986	170.508669267362	1
0	989	170.606999484133	0
0	1069	181.959608633446	1
0	1070	182.048773383509	0
0	1074	182.048904710398	1
0	1075	182.14710360028	0
0	1094	185.132606121508	1
0	1095	185.223230381255	0
0	1139	193.934518874531	1
0	1140	194.002350717385	0
0	1164	196.806493297403	1
0	1165	196.899048870635	0
0	1214	207.210683583204	1
0	1215	207.307029353315	0
0	1285	219.962110336757	1
0	1286	220.056343784849	0
0	1335	224.100349099828	1
0	1336	224.118986708345	0
0	1365	226.390743266938	1
0	1366	226.483187551402	0
0	1380	227.997419814914	1
0	1381	228.095267519314	0
0	1385	228.186414294071	1
0	1386	228.193597736085	0
0	1405	234.428316060366	1
0	1406	234.431684868962	0
0	1415	235.652895416979	1
0	1416	235.688624744142	0
0	1465	244.166681082423	1
0	1466	244.188385759799	0
0	1626	274.883386438586	1
0	1627	274.953629430835	0
0	1651	279.760685932253	1
0	1652	279.798598703173	0
0	1661	280.255072371954	1
0	1662	280.280958950511	0
0	1666	280.329719284474	1
0	1668	280.343432933352	2
0	1669	280.379289167282	1
0	1672	280.477619384053	0
0	1676	280.533546314607	1
0	1677	280.575949600824	0
0	1681	280.630575369296	1
0	1682	280.674279817595	0
0	1741	289.79141821869	1
0	1742	289.842005270881	0
0	1832	312.878289866042	1
0	1833	312.88038349429	0
0	1877	324.974501968277	1
0	1878	324.997453408503	0
0	1897	328.510243110651	1
0	1898	328.542581747222	0
0	1982	342.240685134432	1
0	1983	342.264105702238	0
0	2073	357.998400030368	1
0	2074	358.03077614813	0
0	2083	358.421312675839	1
0	2084	358.487773185839	0
0	2128	364.773280075777	1
0	2129	364.819696501855	0
0	2138	365.349183182105	1
0	2139	365.349814810974	0
0	2208	380.095741631195	1
0	2210	380.143749359688	2
0	2211	380.164651666022	1
0	2214	380.262981882793	0
0	2314	400.617278472419	1
0	2315	400.64779339516	0
0	2379	411.958834799313	1
0	2380	412.002016730711	0
0	2399	412.538030088494	1
0	2400	412.565665603368	0
0	2464	426.067917473739	1
0	2466	426.099417716624	2
0	2467	426.136657590812	1
0	2470	426.234987807583	0
0	2535	434.589096640508	1
0	2536	434.652551675361	0
0	2760	474.765463959577	1
0	2763	475.144430737984	0
0	2776	476.28395866217	1
0	2777	476.348020689449	0
0	2806	479.453281381318	1
0	2808	479.519640457535	2
0	2809	479.532745879668	1
0	2812	479.631076096439	0
0	2876	492.808358871899	1
0	2877	492.889911993889	0
0	2951	503.916278443599	1
0	2953	503.937101969903	2
0	2954	503.975683614827	1
0	2957	504.074013831598	0
0	2991	516.048088959557	1
0	2992	516.128015030485	0
0	3006	517.659605315224	1
0	3007	517.757363004079	0
0	3052	522.168096757737	1
0	3053	522.188086943818	0
0	3132	536.712693185002	1
0	3133	536.749394019823	0
0	3147	539.26405514185	1
0	3148	539.32289637253	0
0	3157	539.70921605891	1
0	3158	539.721088518748	0
0	3177	545.420194068987	1
0	3178	545.514088536736	0
0	3207	550.885354997714	1
0	3209	550.906365807726	2
0	3210	550.943828564007	1
0	3213	551.042158780778	0
0	3264	558.299794295917	1
0	3265	558.487998291286	0
0	3293	561.99856307072	1
0	3294	562.066904449772	0
0	3308	564.178907316271	1
0	3309	564.20403846346	0
0	3328	565.105558170759	1
0	3329	565.146192936938	0
0	3388	573.964739787244	1
0	3389	573.971360753471	0
0	3498	599.650922420316	1
0	3499	599.699271749602	0
0	3714	630.740886389824	1
0	3715	630.769419384925	0
0	3739	632.824037907753	1
0	3740	632.891958220351	0
0	3749	633.609939236679	1
0	3750	633.700373443029	0
0	3785	637.699330493471	1
0	3786	637.763827445489	0
0	3815	644.719676781076	1
0	3816	644.795637703395	0
0	3845	649.882465779698	1
0	3846	649.948389937858	0
0	3875	652.275586677024	1
0	3876	652.329138548363	0
0	3890	656.078256904883	1
0	3891	656.089037906921	0
0	3940	662.288928237851	1
0	3941	662.297508706903	0
0	3955	663.904118507575	1
0	3956	663.949030907165	0
0	4010	675.569902411494	1
0	4011	675.653265224819	0
0	4031	678.373911640828	1
0	4032	678.42687207266	0
0	4036	678.499211825773	1
0	4037	678.525202289431	0
0	4041	678.597939899934	1
0	4042	678.623532506202	0
0	4101	695.006564233471	1
0	4102	695.056829903932	0
0	4161	707.232168157979	1
0	4162	707.255155922993	0
0	4196	712.198234601001	1
0	4197	712.206206014724	0
0	4367	740.863057158685	1
0	4368	740.896300569808	0
0	4422	750.134000945265	1
0	4423	750.147586554047	0
0	4437	750.80024163226	1
0	4438	750.832149454427	0
0	4512	765.648769150369	1
0	4513	765.670723327202	0
0	4653	788.73196319197	1
0	4654	788.829143103716	0
0	4658	788.889124439171	1
0	4659	788.927473320487	0
0	4663	788.931090113802	1
0	4664	789.025803537258	0
0	4698	793.179056399694	1
0	4699	793.213768563824	0
0	4708	793.38721403366	1
0	4709	793.463463450469	0
0	4728	802.224355795782	1
0	4729	802.25957080111	0
0	4758	807.116493591844	1
0	4759	807.185217032784	0
0	4770	807.653072603116	1
0	4771	807.692016022829	0
0	4859	819.475158893879	1
0	4860	819.572027883976	0
0	4879	821.494716463836	1
0	4880	821.562992555727	0
0	4889	824.081538944792	1
0	4890	824.1173531635	0
0	4894	824.153285179356	1
0	4895	824.215683380271	0
0	4924	832.34273776449	1
0	4925	832.417253370089	0
0	4929	832.429417969131	1
0	4930	832.51558358686	0
0	4949	834.272166692541	1
0	4950	834.307580879809	0
0	4954	834.335236799746	1
0	4955	834.40591109658	0
0	4964	835.241783652001	1
0	4965	835.286939985474	0
0	4979	837.411879265638	1
0	4980	837.49674945465	0
0	5145	864.735774222759	1
0	5146	864.747331328058	0
0	5165	869.681972522569	1
0	5166	869.750838548166	0
0	5205	877.204650277284	1
0	5206	877.259890329919	0
0	5220	878.131432156466	1
0	5221	878.226064468241	0
0	5281	891.180645957436	1
0	5282	891.242686917389	0
0	5341	897.856657437071	1
0	5342	897.897067024203	0
0	5346	897.949173536068	1
0	5347	897.995397240974	0
0	5356	898.754222151437	1
0	5357	898.815636700142	0
0	5366	899.278154983838	1
0	5367	899.340005546125	0
0	5371	899.369178988513	1
0	5372	899.438335762896	0
0	5532	935.716813513692	1
0	5533	935.798665177825	0
0	5602	946.706555391838	1
0	5603	946.745691086861	0
0	5783	981.747244882181	1
0	5784	981.752403600177	0
0	5803	984.980700704346	1
0	5804	985.065119777885	0
0	5868	993.429354661066	1
0	5869	993.502010259158	0
1	6	0.329879137968	0.022275756839
1	31	3.761096731706	0.050418071568
1	41	5.294944440713	0.04306694361
1	61	11.119227293297	0.091220751682
1	76	13.247162134503	0.042210978022
1	171	25.416003388509	0.027648585328
1	196	30.301650993033	0.001847858464
1	201	30.399981209804	0.062884756443
1	302	48.787167238975	0.015957594731
1	412	74.454826469823	0.015665032077
1	437	75.959168933116	0.097505621243
1	523	93.025525555553	0.059833173496
1	533	93.960665301608	0.030583608091
1	849	150.860609885089	0.075898318479
1	869	154.031170137275	0.017105347007
1	899	157.452985095643	0.076090319575
1	924	160.532550728892	0.044690855894
1	983	170.410339050591	0.0979799655
1	986	170.508669267362	0.120122108873
1	989	170.606999484133	0.197583029312
1	1070	182.048773383509	0.089164750063
1	1075	182.14710360028	0.098198889882
1	1095	185.223230381255	0.090624259747
1	1140	194.002350717385	0.067831842854
1	1165	196.899048870635	0.092555573232
1	1215	207.307029353315	0.096345770111
1	1286	220.056343784849	0.094233448092
1	1336	224.118986708345	0.018637608517
1	1366	226.483187551402	0.092444284464
1	1381	228.095267519314	0.0978477044
1	1386	228.193597736085	0.007183442014
1	1406	234.431684868962	0.003368808596
1	1416	235.688624744142	0.035729327163
1	1466	244.188385759799	0.021704677376
1	1627	274.953629430835	0.070242992249
1	1652	279.798598703173	0.03791277092
1	1662	280.280958950511	0.025886578557
1	1669	280.379289167282	0.049569882808
1	1672	280.477619384053	0.134186450701
1	1677	280.575949600824	0.042403286217
1	1682	280.674279817595	0.043704448299
1	1742	289.842005270881	0.050587052191
1	1833	312.88038349429	0.002093628248
1	1878	324.997453408503	0.022951440226
1	1898	328.542581747222	0.032338636571
1	1983	342.264105702238	0.023420567806
1	2074	358.03077614813	0.032376117762
1	2084	358.487773185839	0.06646051
1	2129	364.819696501855	0.046416426078
1	2139	365.349814810974	0.000631628869
1	2211	380.164651666022	0.068910034827
1	2214	380.262981882793	0.119232523105
1	2315	400.64779339516	0.030514922741
1	2380	412.002016730711	0.043181931398
1	2400	412.565665603368	0.027635514874
1	2467	426.136657590812	0.068740117073
1	2470	426.234987807583	0.135570090959
1	2536	434.652551675361	0.063455034853
1	2763	475.144430737984	0.378966778407
1	2777	476.348020689449	0.064062027279
1	2809	479.532745879668	0.07946449835
1	2812	479.631076096439	0.111435638904
1	2877	492.889911993889	0.08155312199
1	2954	503.975683614827	0.059405171228
1	2957	504.074013831598	0.136911861695
1	2992	516.128015030485	0.079926070928
1	3007	517.757363004079	0.097757688855
1	3053	522.188086943818	0.019990186081
1	3133	536.749394019823	0.036700834821
1	3148	539.32289637253	0.05884123068
1	3158	539.721088518748	0.011872459838
1	3178	545.514088536736	0.093894467749
1	3210	550.943828564007	0.058473566293
1	3213	551.042158780778	0.135792973052
1	3265	558.487998291286	0.188203995369
1	3294	562.066904449772	0.068341379052
1	3309	564.20403846346	0.025131147189
1	3329	565.146192936938	0.040634766179
1	3389	573.971360753471	0.006620966227
1	3499	599.699271749602	0.048349329286
1	3715	630.769419384925	0.028532995101
1	3740	632.891958220351	0.067920312598
1	3750	633.700373443029	0.09043420635
1	3786	637.763827445489	0.064496952018
1	3816	644.795637703395	0.075960922319
1	3846	649.948389937858	0.06592415816
1	3876	652.329138548363	0.053551871339
1	3891	656.089037906921	0.010781002038
1	3941	662.297508706903	0.008580469052
1	3956	663.949030907165	0.04491239959
1	4011	675.653265224819	0.083362813325
1	4032	678.42687207266	0.052960431832
1	4037	678.525202289431	0.025990463658
1	4042	678.623532506202	0.025592606268
1	4102	695.056829903932	0.050265670461
1	4162	707.255155922993	0.022987765014
1	4197	712.206206014724	0.007971413723
1	4368	740.896300569808	0.033243411123
1	4423	750.147586554047	0.013585608782
1	4438	750.832149454427	0.031907822167
1	4513	765.670723327202	0.021954176833
1	4654	788.829143103716	0.097179911746
1	4659	788.927473320487	0.038348881316
1	4664	789.025803537258	0.094713423456
1	4699	793.213768563824	0.03471216413
1	4709	793.463463450469	0.076249416809
1	4729	802.25957080111	0.035215005328
1	4759	807.185217032784	0.06872344094
1	4771	807.692016022829	0.038943419713
1	4860	819.572027883976	0.096868990097
1	4880	821.562992555727	0.068276091891
1	4890	824.1173531635	0.035814218708
1	4895	824.215683380271	0.062398200915
1	4925	832.417253370089	0.074515605599
1	4930	832.51558358686	0.086165617729
1	4950	834.307580879809	0.035414187268
1	4955	834.40591109658	0.070674296834
1	4965	835.286939985474	0.045156333473
1	4980	837.49674945465	0.084870189012
1	5146	864.747331328058	0.011557105299
1	5166	869.750838548166	0.068866025597
1	5206	877.259890329919	0.055240052635
1	5221	878.226064468241	0.094632311775
1	5282	891.242686917389	0.062040959953
1	5342	897.897067024203	0.040409587132
1	5347	897.995397240974	0.046223704906
1	5357	898.815636700142	0.061414548705
1	5367	899.340005546125	0.061850562287
1	5372	899.438335762896	0.069156774383
1	5533	935.798665177825	0.081851664133
1	5603	946.745691086861	0.039135695023
1	5784	981.752403600177	0.005158717996
1	5804	985.065119777885	0.084419073539
1	5869	993.502010259158	0.072655598092
2	7	0.329879137968	0.098330216771
2	10	0.428209354739	0.12060597361
2	15	0.570339619091	0.098330216771
2	20	2.132154999497	0.098330216771
2	25	2.621248730959	0.098330216771
2	32	3.761096731706	0.098330216771
2	35	3.859426948477	0.148748288339
2	42	5.294944440713	0.098330216771
2	45	5.393274657484	0.141397160381
2	50	7.442692542653	0.098330216771
2	55	7.844038456458	0.098330216771
2	62	11.119227293297	0.098330216771
2	65	11.217557510068	0.189550968453
2	70	11.79669917181	0.098330216771
2	77	13.247162134503	0.098330216771
2	80	13.345492351274	0.140541194793
2	85	13.9055643445	0.098330216771
2	90	15.395645231269	0.098330216771
2	95	15.638187670836	0.098330216771
2	100	16.158753644186	0.098330216771
2	105	16.371226305838	0.098330216771
2	110	16.484341484598	0.098330216771
2	115	18.021664932946	0.098330216771
2	120	18.508645189025	0.098330216771
2	125	19.867889822644	0.098330216771
2	130	20.164036116396	0.098330216771
2	135	21.118801605922	0.098330216771
2	140	21.824080495162	0.098330216771
2	145	22.188734673368	0.098330216771
2	150	23.488126945454	0.098330216771
2	155	23.693781015566	0.098330216771
2	160	24.554452922517	0.098330216771
2	165	25.176915320745	0.098330216771
2	172	25.416003388509	0.098330216771
2	175	25.51433360528	0.125978802099
2	180	27.765904654743	0.098330216771
2	185	28.652901923658	0.098330216771
2	190	29.352344188597	0.098330216771
2	197	30.301650993033	0.098330216771
2	202	30.399981209804	0.100178075235
2	205	30.498311426575	0.161214973214
2	210	32.166576830275	0.098330216771
2	215	33.599683780965	0.098330216771
2	220	33.827507223982	0.098330216771
2	225	34.933524172467	0.098330216771
2	230	35.818579019573	0.098330216771
2	235	37.34838862722	0.098330216771
2	240	37.922801610347	0.098330216771
2	245	38.024207311092	0.098330216771
2	250	38.362075964602	0.098330216771
2	256	40.845159848632	0.098330216771
2	261	42.01110842531	0.098330216771
2	266	43.697757328659	0.098330216771
2	271	43.87455886051	0.098330216771
2	276	44.362476714762	0.098330216771
2	281	47.177780378672	0.098330216771
2	286	47.371150089087	0.098330216771
2	291	47.599189507309	0.098330216771
2	296	48.249426857742	0.098330216771
2	303	48.787167238975	0.098330216771
2	306	48.885497455746	0.114287811502
2	311	49.046912411347	0.098330216771
2	316	49.422609813188	0.098330216771
2	321	50.012854469364	0.098330216771
2	326	50.466441023702	0.098330216771
2	331	50.630207872673	0.098330216771
2	336	54.081521275199	0.098330216771
2	341	55.127486367394	0.098330216771
2	346	55.735068801128	0.098330216771
2	351	56.340438005793	0.098330216771
2	356	57.692597730623	0.098330216771
2	361	58.015665376681	0.098330216771
2	366	61.624258322135	0.098330216771
2	371	65.382580131666	0.098330216771
2	376	65.814239803619	0.098330216771
2	381	68.608749933674	0.098330216771
2	386	69.445138836376	0.098330216771
2	391	72.08656629348	0.098330216771
2	396	72.363868812069	0.098330216771
2	401	72.913354297067	0.098330216771
2	406	74.308006933499	0.098330216771
2	413	74.454826469823	0.098330216771
2	416	74.553156686594	0.113995248848
2	421	75.007542748776	0.098330216771
2	426	75.244505883544	0.098330216771
2	431	75.516915332645	0.098330216771
2	438	75.959168933116	0.098330216771
2	441	76.057499149887	0.195835838014
2	446	77.075747835182	0.098330216771
2	451	78.180999400932	0.098330216771
2	456	78.682098596038	0.098330216771
2	461	79.080625715398	0.098330216771
2	466	81.380930094122	0.098330216771
2	471	82.692649365822	0.098330216771
2	476	83.521869933848	0.098330216771
2	481	83.873702453658	0.098330216771
2	486	85.353060009622	0.098330216771
2	491	85.822598136007	0.098330216771
2	496	87.40269435627	0.098330216771
2	501	87.74739235486	0.098330216771
2	507	88.820698640517	0.098330216771
2	512	90.574654457391	0.098330216771
2	517	91.995238863161	0.098330216771
2	524	93.025525555553	0.098330216771
2	527	93.123855772324	0.158163390267
2	534	93.960665301608	0.098330216771
2	537	94.058995518379	0.128913824862
2	542	94.482293249566	0.098330216771
2	547	95.496933516508	0.098330216771
2	552	95.673513764974	0.098330216771
2	557	96.57540410383	0.098330216771
2	562	96.691501139609	0.098330216771
2	567	98.55733663265	0.098330216771
2	572	99.125763513181	0.098330216771
2	577	99.582282066758	0.098330216771
2	582	99.952676112253	0.098330216771
2	587	100.612897378139	0.098330216771
2	592	100.725029703889	0.098330216771
2	597	101.711533706885	0.098330216771
2	602	103.246101244298	0.098330216771
2	607	104.135813272316	0.098330216771
2	612	104.836203480071	0.098330216771
2	617	105.706686182968	0.098330216771
2	622	106.38496168545	0.098330216771
2	627	106.795229692495	0.098330216771
2	632	107.820555033498	0.098330216771
2	637	109.306706626432	0.098330216771
2	642	109.581584262325	0.098330216771
2	647	111.566559989335	0.098330216771
2	652	112.785736811768	0.098330216771
2	657	112.89283785845	0.098330216771
2	662	113.882594674307	0.098330216771
2	667	114.1119586373	0.098330216771
2	672	114.310106387102	0.098330216771
2	677	114.680198634158	0.098330216771
2	682	114.931449353592	0.098330216771
2	687	115.284055164254	0.098330216771
2	692	115.606802166436	0.098330216771
2	697	117.308739408385	0.098330216771
2	702	118.249560104494	0.098330216771
2	707	118.888380287956	0.098330216771
2	712	119.637527912022	0.098330216771
2	717	122.097983362847	0.098330216771
2	722	123.056462384701	0.098330216771
2	727	123.179530153776	0.098330216771
2	732	124.994713377483	0.098330216771
2	737	125.142794101791	0.098330216771
2	742	125.753720675712	0.098330216771
2	747	128.408228868077	0.098330216771
2	752	129.170721425476	0.098330216771
2	758	130.929361985328	0.098330216771
2	763	132.129028374706	0.098330216771
2	768	132.357728336614	0.098330216771
2	773	134.374644126839	0.098330216771
2	778	135.602937689153	0.098330216771
2	783	136.795906880661	0.098330216771
2	788	137.011138008933	0.098330216771
2	793	138.669783924173	0.098330216771
2	798	139.601483000931	0.098330216771
2	803	139.984033363649	0.098330216771
2	808	140.369289274066	0.098330216771
2	813	140.939974784989	0.098330216771
2	818	142.322454653089	0.098330216771
2	823	146.122325140633	0.098330216771
2	828	148.265710999523	0.098330216771
2	833	148.948816406236	0.098330216771
2	838	149.933362209843	0.098330216771
2	843	150.111768032778	0.098330216771
2	850	150.860609885089	0.098330216771
2	853	150.95894010186	0.17422853525
2	858	153.531881180568	0.098330216771
2	863	153.800308128465	0.098330216771
2	870	154.031170137275	0.098330216771
2	873	154.129500354046	0.115435563778
2	878	154.320330540728	0.098330216771
2	883	154.483441149742	0.098330216771
2	888	155.801729231428	0.098330216771
2	893	156.286269939136	0.098330216771
2	900	157.452985095643	0.098330216771
2	903	157.551315312414	0.174420536346
2	908	158.197299260412	0.098330216771
2	913	158.757154523841	0.098330216771
2	918	159.290661945476	0.098330216771
2	925	160.532550728892	0.098330216771
2	928	160.630880945663	0.143021072665
2	933	161.912442380791	0.098330216771
2	938	162.89387320097	0.098330216771
2	943	163.782919958835	0.098330216771
2	948	164.803647684258	0.098330216771
2	953	165.842298863135	0.098330216771
2	958	166.905951073259	0.098330216771
2	963	167.29285786151	0.098330216771
2	968	168.336057867993	0.098330216771
2	973	169.142934706779	0.098330216771
2	984	170.410339050591	0.098330216771
2	987	170.508669267362	0.196310182271
2	990	170.606999484133	0.218452325644
2	993	170.705329700904	0.295913246083
2	998	171.056161922739	0.098330216771
2	1003	171.840177515141	0.098330216771
2	1009	172.910848018718	0.098330216771
2	1014	174.609506539978	0.098330216771
2	1019	175.132997757612	0.098330216771
2	1024	175.509949758048	0.098330216771
2	1029	176.694654249885	0.098330216771
2	1034	178.037621894212	0.098330216771
2	1039	178.663279935492	0.098330216771
2	1044	179.050246327891	0.098330216771
2	1049	179.337319046575	0.098330216771
2	1054	179.999190159412	0.098330216771
2	1059	181.105666041878	0.098330216771
2	1064	181.764305211638	0.098330216771
2	1071	182.048773383509	0.098330216771
2	1076	182.14710360028	0.187494966834
2	1079	182.245433817051	0.196529106653
2	1084	182.372849995097	0.098330216771
2	1089	183.130735914293	0.098330216771
2	1096	185.223230381255	0.098330216771
2	1099	185.321560598026	0.188954476518
2	1104	186.938791680918	0.098330216771
2	1109	187.292697081598	0.098330216771
2	1114	187.524877976996	0.098330216771
2	1119	187.748193868251	0.098330216771
2	1124	187.964461944913	0.098330216771
2	1129	189.498687934019	0.098330216771
2	1134	191.573843157155	0.098330216771
2	1141	194.002350717385	0.098330216771
2	1144	194.100680934156	0.166162059625
2	1149	195.567614011192	0.098330216771
2	1154	196.48527300709	0.098330216771
2	1159	196.593907042033	0.098330216771
2	1166	196.899048870635	0.098330216771
2	1169	196.997379087406	0.190885790003
2	1174	197.906010027952	0.098330216771
2	1179	199.323614863874	0.098330216771
2	1184	199.992223634564	0.098330216771
2	1189	201.702024863772	0.098330216771
2	1194	202.408337983924	0.098330216771
2	1199	203.614979725552	0.098330216771
2	1204	205.234495785466	0.098330216771
2	1209	207.14945681621	0.098330216771
2	1216	207.307029353315	0.098330216771
2	1219	207.405359570086	0.194675986882
2	1224	208.081007441244	0.098330216771
2	1229	209.610063578779	0.098330216771
2	1234	210.168221754477	0.098330216771
2	1239	210.824641582863	0.098330216771
2	1244	211.188553997616	0.098330216771
2	1249	211.768790465263	0.098330216771
2	1254	213.330587617853	0.098330216771
2	1260	214.240587143875	0.098330216771
2	1265	215.021445420744	0.098330216771
2	1270	217.625850528154	0.098330216771
2	1275	217.861818103995	0.098330216771
2	1280	218.455255845482	0.098330216771
2	1287	220.056343784849	0.098330216771
2	1290	220.15467400162	0.192563664863
2	1295	220.508100221061	0.098330216771
2	1300	221.525427096367	0.098330216771
2	1305	221.639757092109	0.098330216771
2	1310	222.041886166755	0.098330216771
2	1315	222.946484512614	0.098330216771
2	1320	223.144633810924	0.098330216771
2	1325	223.647323120654	0.098330216771
2	1330	223.855969268784	0.098330216771
2	1337	224.118986708345	0.098330216771
2	1340	224.217316925116	0.116967825288
2	1345	224.986029616349	0.098330216771
2	1350	225.542431086407	0.098330216771
2	1355	225.765282945472	0.098330216771
2	1360	226.167637260319	0.098330216771
2	1367	226.483187551402	0.098330216771
2	1370	226.581517768173	0.190774501235
2	1375	227.178444780348	0.098330216771
2	1382	228.095267519314	0.098330216771
2	1387	228.193597736085	0.196177921171
2	1390	228.291927952856	0.105513658785
2	1395	228.695718597527	0.098330216771
2	1400	232.826588570179	0.098330216771
2	1407	234.431684868962	0.098330216771
2	1410	234.530015085733	0.101699025367
2	1417	235.688624744142	0.098330216771
2	1420	235.786954960913	0.134059543934
2	1425	237.34483787777	0.098330216771
2	1430	238.965404372937	0.098330216771
2	1435	239.382145934156	0.098330216771
2	1440	239.546476950371	0.098330216771
2	1445	239.994318695124	0.098330216771
2	1450	240.386299283924	0.098330216771
2	1455	241.986998264326	0.098330216771
2	1460	243.312977839967	0.098330216771
2	1467	244.188385759799	0.098330216771
2	1470	244.28671597657	0.120034894147
2	1475	244.611205697529	0.098330216771
2	1480	244.930291626617	0.098330216771
2	1485	245.298145434486	0.098330216771
2	1490	246.458022896826	0.098330216771
2	1495	248.034856735638	0.098330216771
2	1500	248.357274281559	0.098330216771
2	1505	249.621339134371	0.098330216771
2	1511	250.776856842782	0.098330216771
2	1516	251.820754082373	0.098330216771
2	1521	252.132789688358	0.098330216771
2	1526	252.685216352854	0.098330216771
2	1531	253.036052839886	0.098330216771
2	1536	253.223649578301	0.098330216771
2	1541	255.505289904174	0.098330216771
2	1546	256.164536052591	0.098330216771
2	1551	256.399392448211	0.098330216771
2	1556	258.363836255151	0.098330216771
2	1561	259.214613322331	0.098330216771
2	1566	261.918050863108	0.098330216771
2	1571	262.498125661919	0.098330216771
2	1576	263.367603708443	0.098330216771
2	1581	263.525948428787	0.098330216771
2	1586	264.66265453709	0.098330216771
2	1591	266.169990368656	0.098330216771
2	1596	266.687487497888	0.098330216771
2	1601	269.454014306598	0.098330216771
2	1606	270.115752986009	0.098330216771
2	1611	271.10933070448	0.098330216771
2	1616	271.813746991545	0.098330216771
2	1621	272.946521246607	0.098330216771
2	1628	274.953629430835	0.098330216771
2	1631	275.051959647606	0.16857320902
2	1636	275.621600942263	0.098330216771
2	1641	277.962931738571	0.098330216771
2	1646	278.726387837985	0.098330216771
2	1653	279.798598703173	0.098330216771
2	1656	279.896928919944	0.136242987691
2	1663	280.280958950511	0.098330216771
2	1670	280.379289167282	0.124216795328
2	1673	280.477619384053	0.147900099579
2	1678	280.575949600824	0.232516667472
2	1683	280.674279817595	0.140733502988
2	1686	280.772610034366	0.14203466507
2	1691	281.376368735446	0.098330216771
2	1696	282.994767332374	0.098330216771
2	1701	283.66097953143	0.098330216771
2	1706	284.496987756587	0.098330216771
2	1711	284.941546520505	0.098330216771
2	1716	285.900794130303	0.098330216771
2	1721	286.69677756335	0.098330216771
2	1726	287.191436395479	0.098330216771
2	1731	288.240252839075	0.098330216771
2	1736	288.618038451884	0.098330216771
2	1743	289.842005270881	0.098330216771
2	1746	289.940335487652	0.148917268962
2	1751	291.987883941829	0.098330216771
2	1756	292.17444535939	0.098330216771
2	1762	293.417976328412	0.098330216771
2	1767	296.940670377017	0.098330216771
2	1772	298.127970392244	0.098330216771
2	1777	299.254430478833	0.098330216771
2	1782	302.170512885966	0.098330216771
2	1787	302.314437222312	0.098330216771
2	1792	303.591348147612	0.098330216771
2	1797	303.791708783993	0.098330216771
2	1802	304.600408316505	0.098330216771
2	1807	305.650449678411	0.098330216771
2	1812	308.083038586556	0.098330216771
2	1817	310.430304336589	0.098330216771
2	1822	311.988269690556	0.098330216771
2	1827	312.358372525685	0.098330216771
2	1834	312.88038349429	0.098330216771
2	1837	312.978713711061	0.100423845019
2	1842	313.666516905281	0.098330216771
2	1847	314.978529580447	0.098330216771
2	1852	315.170080679242	0.098330216771
2	1857	315.524116938171	0.098330216771
2	1862	317.52339747643	0.098330216771
2	1867	321.762624447786	0.098330216771
2	1872	322.710269633946	0.098330216771
2	1879	324.997453408503	0.098330216771
2	1882	325.095783625274	0.121281656997
2	1887	325.366198603304	0.098330216771
2	1892	326.902884708167	0.098330216771
2	1899	328.542581747222	0.098330216771
2	1902	328.640911963993	0.130668853342
2	1907	330.280679437704	0.098330216771
2	1912	330.780532371162	0.098330216771
2	1917	331.392729142	0.098330216771
2	1922	331.693318125548	0.098330216771
2	1927	332.703819007808	0.098330216771
2	1932	333.925494608028	0.098330216771
2	1937	334.677514963523	0.098330216771
2	1942	335.1244332508	0.098330216771
2	1947	335.441343981126	0.098330216771
2	1952	335.584216376494	0.098330216771
2	1957	337.379722846034	0.098330216771
2	1962	338.142174454278	0.098330216771
2	1967	340.092410385448	0.098330216771
2	1972	341.22728230343	0.098330216771
2	1977	341.371167510541	0.098330216771
2	1984	342.264105702238	0.098330216771
2	1987	342.362435919009	0.121750784577
2	1992	342.957069990524	0.098330216771
2	1997	343.180814072755	0.098330216771
2	2002	345.754695285452	0.098330216771
2	2007	346.050605466602	0.098330216771
2	2013	346.706071437436	0.098330216771
2	2018	347.294176438396	0.098330216771
2	2023	348.191710529033	0.098330216771
2	2028	348.396230700544	0.098330216771
2	2033	348.647247235362	0.098330216771
2	2038	352.052533242726	0.098330216771
2	2043	352.415985372521	0.098330216771
2	2048	353.074388883372	0.098330216771
2	2053	353.390807781817	0.098330216771
2	2058	354.561507106167	0.098330216771
2	2063	356.076420664714	0.098330216771
2	2068	356.870395765051	0.098330216771
2	2075	358.03077614813	0.098330216771
2	2078	358.129106364901	0.130706334533
2	2085	358.487773185839	0.098330216771
2	2088	358.58610340261	0.164790726771
2	2093	358.763878770094	0.098330216771
2	2098	359.251646259969	0.098330216771
2	2103	360.968412407629	0.098330216771
2	2108	362.296965061035	0.098330216771
2	2113	362.451872433436	0.098330216771
2	2118	362.865297031301	0.098330216771
2	2123	363.050886766736	0.098330216771
2	2130	364.819696501855	0.098330216771
2	2133	364.918026718626	0.144746642849
2	2140	365.349814810974	0.098330216771
2	2143	365.448145027745	0.09896184564
2	2148	366.795109519702	0.098330216771
2	2153	367.953161677045	0.098330216771
2	2158	370.493659181049	0.098330216771
2	2163	371.443876477959	0.098330216771
2	2168	372.249889214174	0.098330216771
2	2173	373.127101992206	0.098330216771
2	2178	374.022538623615	0.098330216771
2	2183	374.351054182679	0.098330216771
2	2188	375.134401281109	0.098330216771
2	2193	377.286863113833	0.098330216771
2	2198	378.826979844456	0.098330216771
2	2203	378.971194806641	0.098330216771
2	2212	380.164651666022	0.098330216771
2	2215	380.262981882793	0.167240251598
2	2218	380.361312099564	0.217562739876
2	2223	380.473431951726	0.098330216771
2	2228	380.618533429126	0.098330216771
2	2233	382.52416676495	0.098330216771
2	2238	383.182787568534	0.098330216771
2	2243	383.41382175972	0.098330216771
2	2248	384.399097092121	0.098330216771
2	2253	385.158786122287	0.098330216771
2	2258	385.537133775879	0.098330216771
2	2264	386.642247727573	0.098330216771
2	2269	386.942030690064	0.098330216771
2	2274	387.326751415228	0.098330216771
2	2279	388.685306950129	0.098330216771
2	2284	389.03036397916	0.098330216771
2	2289	389.402691926865	0.098330216771
2	2294	394.209767774861	0.098330216771
2	2299	396.370664728899	0.098330216771
2	2304	398.229029948279	0.098330216771
2	2309	398.920352290176	0.098330216771
2	2316	400.64779339516	0.098330216771
2	2319	400.746123611931	0.128845139512
2	2324	400.949587249136	0.098330216771
2	2329	402.837736631927	0.098330216771
2	2334	403.490905129088	0.098330216771
2	2339	404.164859871141	0.098330216771
2	2344	404.961047018591	0.098330216771
2	2349	405.38113017704	0.098330216771
2	2354	405.569612028478	0.098330216771
2	2359	406.284467342528	0.098330216771
2	2364	406.622069155137	0.098330216771
2	2369	411.336238235299	0.098330216771
2	2374	411.812126907724	0.098330216771
2	2381	412.002016730711	0.098330216771
2	2384	412.100346947482	0.141512148169
2	2389	412.315545000992	0.098330216771
2	2394	412.433527827952	0.098330216771
2	2401	412.565665603368	0.098330216771
2	2404	412.663995820139	0.125965731645
2	2409	414.692767039416	0.098330216771
2	2414	416.336654255275	0.098330216771
2	2419	416.992327712392	0.098330216771
2	2424	418.188307391421	0.098330216771
2	2429	419.242183111492	0.098330216771
2	2434	420.446770118745	0.098330216771
2	2439	421.376881368925	0.098330216771
2	2444	421.828502180976	0.098330216771
2	2449	423.164087355486	0.098330216771
2	2454	424.961339219165	0.098330216771
2	2459	425.087770127378	0.098330216771
2	2468	426.136657590812	0.098330216771
2	2471	426.234987807583	0.167070333844
2	2474	426.333318024354	0.23390030773
2	2479	427.086788039729	0.098330216771
2	2484	427.329994246688	0.098330216771
2	2489	427.484118460324	0.098330216771
2	2494	427.761033407998	0.098330216771
2	2499	428.162675512487	0.098330216771
2	2504	428.395697899322	0.098330216771
2	2509	429.160816497067	0.098330216771
2	2515	432.107072184931	0.098330216771
2	2520	432.736880902291	0.098330216771
2	2525	433.807531116167	0.098330216771
2	2530	434.133617260522	0.098330216771
2	2537	434.652551675361	0.098330216771
2	2540	434.750881892132	0.161785251624
2	2545	437.965820988191	0.098330216771
2	2550	440.251512033468	0.098330216771
2	2555	440.427820864505	0.098330216771
2	2560	440.617199551609	0.098330216771
2	2565	441.052108937967	0.098330216771
2	2570	441.418188217195	0.098330216771
2	2575	445.357078025789	0.098330216771
2	2580	445.548494878152	0.098330216771
2	2585	446.430135039258	0.098330216771
2	2590	449.675361414991	0.098330216771
2	2595	450.259278131912	0.098330216771
2	2600	450.536369486488	0.098330216771
2	2605	450.646375284642	0.098330216771
2	2610	450.865000673456	0.098330216771
2	2615	451.052942052995	0.098330216771
2	2620	451.196979316748	0.098330216771
2	2625	451.818521727827	0.098330216771
2	2630	452.052073944121	0.098330216771
2	2635	454.033493189224	0.098330216771
2	2640	454.70995411862	0.098330216771
2	2645	455.047072763393	0.098330216771
2	2650	455.626241566111	0.098330216771
2	2655	455.976434854914	0.098330216771
2	2660	457.63258914425	0.098330216771
2	2665	458.353198732083	0.098330216771
2	2670	458.747800510801	0.098330216771
2	2675	459.730627816926	0.098330216771
2	2680	460.926476012325	0.098330216771
2	2685	462.177191619201	0.098330216771
2	2690	462.998624271259	0.098330216771
2	2695	463.498913160711	0.098330216771
2	2700	465.589183927499	0.098330216771
2	2705	467.123557067331	0.098330216771
2	2710	467.439357777147	0.098330216771
2	2715	467.566873972122	0.098330216771
2	2720	467.724930486406	0.098330216771
2	2725	469.043354427899	0.098330216771
2	2730	469.426027839511	0.098330216771
2	2735	470.521215712166	0.098330216771
2	2740	472.030754283169	0.098330216771
2	2745	472.226350520818	0.098330216771
2	2750	473.020541700694	0.098330216771
2	2755	474.123032880956	0.098330216771
2	2762	474.847791895079	0.098330216771
2	2766	475.242760954755	0.477296995178
2	2771	475.750203372783	0.098330216771
2	2778	476.348020689449	0.098330216771
2	2781	476.44635090622	0.16239224405
2	2786	477.28049849339	0.098330216771
2	2791	477.379156443699	0.098330216771
2	2796	478.424425291146	0.098330216771
2	2801	478.773307585985	0.098330216771
2	2810	479.532745879668	0.098330216771
2	2813	479.631076096439	0.177794715121
2	2816	479.72940631321	0.209765855675
2	2821	481.667122267886	0.098330216771
2	2826	481.996494261346	0.098330216771
2	2831	482.10951818564	0.098330216771
2	2836	482.945799319995	0.098330216771
2	2841	484.519695004996	0.098330216771
2	2846	484.653200457109	0.098330216771
2	2851	487.151953725128	0.098330216771
2	2856	487.843662538896	0.098330216771
2	2861	489.264527050706	0.098330216771
2	2866	489.391935306383	0.098330216771
2	2871	491.511059578253	0.098330216771
2	2878	492.889911993889	0.098330216771
2	2881	492.98824221066	0.179883338761
2	2886	493.352716474821	0.098330216771
2	2891	494.328865164778	0.098330216771
2	2896	494.6726358398	0.098330216771
2	2901	494.857043478035	0.098330216771
2	2906	495.344535065828	0.098330216771
2	2911	497.227236665656	0.098330216771
2	2916	498.724673130516	0.098330216771
2	2921	499.086072241188	0.098330216771
2	2926	499.280784278719	0.098330216771
2	2931	500.10818515067	0.098330216771
2	2936	500.296902676285	0.098330216771
2	2941	500.652111897271	0.098330216771
2	2946	500.837510398778	0.098330216771
2	2955	503.975683614827	0.098330216771
2	2958	504.074013831598	0.157735387999
2	2961	504.172344048369	0.235242078466
2	2966	506.22733767505	0.098330216771
2	2971	508.458442188793	0.098330216771
2	2976	513.840111125507	0.098330216771
2	2981	514.078919068817	0.098330216771
2	2986	514.751068674274	0.098330216771
2	2993	516.128015030485	0.098330216771
2	2996	516.226345247256	0.178256287699
2	3001	517.357918311317	0.098330216771
2	3008	517.757363004079	0.098330216771
2	3011	517.85569322085	0.196087905626
2	3017	518.408711129729	0.098330216771
2	3022	518.535011079449	0.098330216771
2	3027	519.690124550458	0.098330216771
2	3032	519.866177577008	0.098330216771
2	3037	520.985807743973	0.098330216771
2	3042	521.86904942614	0.098330216771
2	3047	522.077771673306	0.098330216771
2	3054	522.188086943818	0.098330216771
2	3057	522.286417160589	0.118320402852
2	3062	522.562100935085	0.098330216771
2	3067	523.363380734619	0.098330216771
2	3072	523.990263327127	0.098330216771
2	3077	524.374131604067	0.098330216771
2	3082	524.842405191988	0.098330216771
2	3087	526.112859820454	0.098330216771
2	3092	527.305193847796	0.098330216771
2	3097	528.103481758397	0.098330216771
2	3102	529.216983924083	0.098330216771
2	3107	529.422494417852	0.098330216771
2	3112	533.285383621012	0.098330216771
2	3117	533.686347090798	0.098330216771
2	3122	533.971287501386	0.098330216771
2	3127	536.627040265948	0.098330216771
2	3134	536.749394019823	0.098330216771
2	3137	536.847724236594	0.135031051592
2	3142	538.035987680476	0.098330216771
2	3149	539.32289637253	0.098330216771
2	3152	539.421226589301	0.157171447451
2	3159	539.721088518748	0.098330216771
2	3162	539.819418735519	0.110202676609
2	3167	542.189670331557	0.098330216771
2	3172	542.852220495427	0.098330216771
2	3179	545.514088536736	0.098330216771
2	3182	545.612418753507	0.19222468452
2	3187	547.988649583335	0.098330216771
2	3192	549.157420785032	0.098330216771
2	3197	549.589171052857	0.098330216771
2	3202	550.59732745032	0.098330216771
2	3211	550.943828564007	0.098330216771
2	3214	551.042158780778	0.156803783064
2	3217	551.140488997549	0.234123189823
2	3222	551.568213958788	0.098330216771
2	3227	551.839025857041	0.098330216771
2	3232	552.33055411469	0.098330216771
2	3237	552.568988433588	0.098330216771
2	3242	552.876848702248	0.098330216771
2	3247	553.073606668519	0.098330216771
2	3252	553.689743863576	0.098330216771
2	3257	554.182124089669	0.098330216771
2	3262	558.191359448381	0.098330216771
2	3268	558.586328508057	0.28653421214
2	3273	559.332474966517	0.098330216771
2	3278	559.835994602062	0.098330216771
2	3283	560.306902256545	0.098330216771
2	3288	560.481439589704	0.098330216771
2	3295	562.066904449772	0.098330216771
2	3298	562.165234666543	0.166671595823
2	3303	563.819298977842	0.098330216771
2	3310	564.20403846346	0.098330216771
2	3313	564.302368680231	0.12346136396
2	3318	564.419726446324	0.098330216771
2	3323	564.839231583272	0.098330216771
2	3330	565.146192936938	0.098330216771
2	3333	565.244523153709	0.13896498295
2	3338	565.405952812965	0.098330216771
2	3343	566.3587008634	0.098330216771
2	3348	566.554137867268	0.098330216771
2	3353	567.1284217318	0.098330216771
2	3358	569.260780464562	0.098330216771
2	3363	569.453340382148	0.098330216771
2	3368	570.393592628416	0.098330216771
2	3373	570.571408095501	0.098330216771
2	3378	572.112800231179	0.098330216771
2	3383	573.646638414524	0.098330216771
2	3390	573.971360753471	0.098330216771
2	3393	574.069690970242	0.104951182998
2	3398	574.177829876167	0.098330216771
2	3403	574.84481009372	0.098330216771
2	3408	575.424839270051	0.098330216771
2	3413	575.704732606316	0.098330216771
2	3418	575.866250600467	0.098330216771
2	3423	577.6260834742	0.098330216771
2	3428	578.447324651569	0.098330216771
2	3433	579.077967225693	0.098330216771
2	3438	582.099465677608	0.098330216771
2	3443	582.455408637448	0.098330216771
2	3448	585.730900740956	0.098330216771
2	3453	588.245781917556	0.098330216771
2	3458	589.036298050854	0.098330216771
2	3463	591.572819818552	0.098330216771
2	3468	593.433955544236	0.098330216771
2	3473	594.159662276472	0.098330216771
2	3478	595.435634059427	0.098330216771
2	3483	596.636604454835	0.098330216771
2	3488	598.785802457386	0.098330216771
2	3493	599.426100019755	0.098330216771
2	3500	599.699271749602	0.098330216771
2	3503	599.797601966373	0.146679546057
2	3508	601.799059872221	0.098330216771
2	3513	602.446146131026	0.098330216771
2	3519	603.007402905771	0.098330216771
2	3524	604.525570631138	0.098330216771
2	3529	604.855424992403	0.098330216771
2	3534	605.104821686864	0.098330216771
2	3539	605.324373473242	0.098330216771
2	3544	605.885157080071	0.098330216771
2	3549	606.269839375284	0.098330216771
2	3554	607.162677943274	0.098330216771
2	3559	607.893070277489	0.098330216771
2	3564	608.119796732292	0.098330216771
2	3569	608.460821827159	0.098330216771
2	3574	609.730031175124	0.098330216771
2	3579	609.833853117283	0.098330216771
2	3584	610.674154797799	0.098330216771
2	3589	611.067839134293	0.098330216771
2	3594	612.207593326032	0.098330216771
2	3599	612.545059288993	0.098330216771
2	3604	613.163873930998	0.098330216771
2	3609	613.412821357686	0.098330216771
2	3614	614.008667538032	0.098330216771
2	3619	615.467773866444	0.098330216771
2	3624	615.805165717142	0.098330216771
2	3629	616.985086828409	0.098330216771
2	3634	618.948723540416	0.098330216771
2	3639	619.13613908854	0.098330216771
2	3644	619.509469785645	0.098330216771
2	3649	620.092711177003	0.098330216771
2	3654	620.820446220871	0.098330216771
2	3659	621.785874112642	0.098330216771
2	3664	622.406935829491	0.098330216771
2	3669	623.102909827256	0.098330216771
2	3674	624.712779094348	0.098330216771
2	3679	625.172266126081	0.098330216771
2	3684	625.372705237568	0.098330216771
2	3689	628.432622640318	0.098330216771
2	3694	628.769023547361	0.098330216771
2	3699	629.091078036944	0.098330216771
2	3704	630.002990424548	0.098330216771
2	3709	630.112851128035	0.098330216771
2	3716	630.769419384925	0.098330216771
2	3719	630.867749601696	0.126863211872
2	3724	631.501862243117	0.098330216771
2	3729	631.87191079012	0.098330216771
2	3734	632.243276869403	0.098330216771
2	3741	632.891958220351	0.098330216771
2	3744	632.990288437122	0.166250529369
2	3751	633.700373443029	0.098330216771
2	3754	633.7987036598	0.188764423121
2	3759	636.131167964397	0.098330216771
2	3764	636.361309582077	0.098330216771
2	3770	636.90999843069	0.098330216771
2	3775	637.117182950969	0.098330216771
2	3780	637.619100150244	0.098330216771
2	3787	637.763827445489	0.098330216771
2	3790	637.86215766226	0.162827168789
2	3795	638.59237232444	0.098330216771
2	3800	639.43905105992	0.098330216771
2	3805	641.229050319665	0.098330216771
2	3810	644.492328888122	0.098330216771
2	3817	644.795637703395	0.098330216771
2	3820	644.893967920166	0.17429113909
2	3825	645.399034650639	0.098330216771
2	3830	646.705413819507	0.098330216771
2	3835	648.014344196987	0.098330216771
2	3840	649.605860878045	0.098330216771
2	3847	649.948389937858	0.098330216771
2	3850	650.046720154629	0.164254374931
2	3855	650.199469206635	0.098330216771
2	3860	651.136156140794	0.098330216771
2	3865	651.443804123837	0.098330216771
2	3870	652.030366755329	0.098330216771
2	3877	652.329138548363	0.098330216771
2	3880	652.427468765134	0.15188208811
2	3885	655.283932872432	0.098330216771
2	3892	656.089037906921	0.098330216771
2	3895	656.187368123692	0.109111218809
2	3900	656.430746194495	0.098330216771
2	3905	657.25236902454	0.098330216771
2	3910	657.353468472226	0.098330216771
2	3915	657.893167582789	0.098330216771
2	3920	659.20833578678	0.098330216771
2	3925	661.255832784836	0.098330216771
2	3930	661.982120867908	0.098330216771
2	3935	662.14413471997	0.098330216771
2	3942	662.297508706903	0.098330216771
2	3945	662.395838923674	0.106910685823
2	3950	663.328635614291	0.098330216771
2	3957	663.949030907165	0.098330216771
2	3960	664.047361123936	0.143242616361
2	3965	666.872558251362	0.098330216771
2	3970	667.346050129798	0.098330216771
2	3975	667.961720487013	0.098330216771
2	3980	668.480428388782	0.098330216771
2	3985	669.709316772086	0.098330216771
2	3990	669.960979919657	0.098330216771
2	3995	670.863657899699	0.098330216771
2	4000	673.854276718252	0.098330216771
2	4005	675.086104497794	0.098330216771
2	4012	675.653265224819	0.098330216771
2	4015	675.75159544159	0.181693030096
2	4021	677.499780392125	0.098330216771
2	4026	677.702696490131	0.098330216771
2	4033	678.42687207266	0.098330216771
2	4038	678.525202289431	0.151290648603
2	4043	678.623532506202	0.124320680429
2	4046	678.721862722973	0.123922823039
2	4051	679.682043195157	0.098330216771
2	4056	681.723434700744	0.098330216771
2	4061	682.651703752104	0.098330216771
2	4066	683.77280721745	0.098330216771
2	4071	685.209531345491	0.098330216771
2	4076	685.307963752375	0.098330216771
2	4081	685.76370117164	0.098330216771
2	4086	687.728290526194	0.098330216771
2	4091	691.826677478101	0.098330216771
2	4096	692.221735437223	0.098330216771
2	4103	695.056829903932	0.098330216771
2	4106	695.155160120703	0.148595887232
2	4111	695.433267419603	0.098330216771
2	4116	696.487506212961	0.098330216771
2	4121	698.570310985394	0.098330216771
2	4126	698.817763915361	0.098330216771
2	4131	699.912526888252	0.098330216771
2	4136	702.768499775844	0.098330216771
2	4141	704.906197085133	0.098330216771
2	4146	705.315712993009	0.098330216771
2	4151	706.494476661165	0.098330216771
2	4156	706.955997763709	0.098330216771
2	4163	707.255155922993	0.098330216771
2	4166	707.353486139764	0.121317981785
2	4171	707.584228147537	0.098330216771
2	4176	709.106186476865	0.098330216771
2	4181	710.322581418991	0.098330216771
2	4186	711.197512638668	0.098330216771
2	4191	711.887822700485	0.098330216771
2	4198	712.206206014724	0.098330216771
2	4201	712.304536231495	0.106301630494
2	4206	713.097937025619	0.098330216771
2	4211	714.583779710408	0.098330216771
2	4216	715.001105647474	0.098330216771
2	4221	715.249684649815	0.098330216771
2	4226	715.736781031349	0.098330216771
2	4231	716.031834036784	0.098330216771
2	4236	716.302303981819	0.098330216771
2	4241	716.82309512388	0.098330216771
2	4246	716.934446409374	0.098330216771
2	4251	718.149954200871	0.098330216771
2	4256	718.776101114832	0.098330216771
2	4261	722.201266081035	0.098330216771
2	4266	722.700487709101	0.098330216771
2	4272	723.739610744148	0.098330216771
2	4277	724.995897147244	0.098330216771
2	4282	725.224073169465	0.098330216771
2	4287	725.45817848582	0.098330216771
2	4292	725.571011449117	0.098330216771
2	4297	726.417778044296	0.098330216771
2	4302	726.960477441842	0.098330216771
2	4307	727.198427190117	0.098330216771
2	4312	729.01813720486	0.098330216771
2	4317	729.175403655755	0.098330216771
2	4322	729.921893639235	0.098330216771
2	4327	730.072339947507	0.098330216771
2	4332	730.999594283047	0.098330216771
2	4337	731.27544593672	0.098330216771
2	4342	732.07285305108	0.098330216771
2	4347	733.980470418036	0.098330216771
2	4352	734.181065851015	0.098330216771
2	4357	737.399976739501	0.098330216771
2	4362	740.235869781932	0.098330216771
2	4369	740.896300569808	0.098330216771
2	4372	740.994630786579	0.131573627894
2	4377	741.1044548655	0.098330216771
2	4382	742.010664329818	0.098330216771
2	4387	745.268891284405	0.098330216771
2	4392	745.479420524515	0.098330216771
2	4397	745.662796803398	0.098330216771
2	4402	746.15690116406	0.098330216771
2	4407	746.899044161144	0.098330216771
2	4412	748.416642236931	0.098330216771
2	4417	749.505436233553	0.098330216771
2	4424	750.147586554047	0.098330216771
2	4427	750.245916770818	0.111915825553
2	4432	750.405861443838	0.098330216771
2	4439	750.832149454427	0.098330216771
2	4442	750.930479671198	0.130238038938
2	4447	751.730736050368	0.098330216771
2	4452	751.855798118444	0.098330216771
2	4457	753.726504622326	0.098330216771
2	4462	754.546303876546	0.098330216771
2	4467	755.898145438437	0.098330216771
2	4472	756.591519395109	0.098330216771
2	4477	757.541609562101	0.098330216771
2	4482	757.661825243274	0.098330216771
2	4487	758.388805791157	0.098330216771
2	4492	759.348493678351	0.098330216771
2	4497	759.739680216392	0.098330216771
2	4502	761.766808864418	0.098330216771
2	4507	764.457559106521	0.098330216771
2	4514	765.670723327202	0.098330216771
2	4517	765.769053543973	0.120284393604
2	4523	767.807662318291	0.098330216771
2	4528	769.585092703822	0.098330216771
2	4533	771.386233935392	0.098330216771
2	4538	773.454014582696	0.098330216771
2	4543	773.572004890744	0.098330216771
2	4548	773.680663759411	0.098330216771
2	4553	773.802355685539	0.098330216771
2	4558	774.48644516174	0.098330216771
2	4563	774.737131551345	0.098330216771
2	4568	774.983910713412	0.098330216771
2	4573	777.946961489609	0.098330216771
2	4578	778.602303309035	0.098330216771
2	4583	778.733201542549	0.098330216771
2	4588	779.89458940021	0.098330216771
2	4593	780.496306287053	0.098330216771
2	4598	781.246242210561	0.098330216771
2	4603	782.121682583212	0.098330216771
2	4608	782.552951358467	0.098330216771
2	4613	782.810262483485	0.098330216771
2	4618	782.932044296359	0.098330216771
2	4623	783.29109951706	0.098330216771
2	4628	783.491526939914	0.098330216771
2	4633	785.30360962669	0.098330216771
2	4638	785.719757874591	0.098330216771
2	4643	787.138848834743	0.098330216771
2	4648	787.258934627472	0.098330216771
2	4655	788.829143103716	0.098330216771
2	4660	788.927473320487	0.195510128517
2	4665	789.025803537258	0.136679098087
2	4668	789.124133754029	0.193043640227
2	4673	789.780220254749	0.098330216771
2	4678	791.120081850687	0.098330216771
2	4683	791.218687611974	0.098330216771
2	4688	791.988899179155	0.098330216771
2	4693	793.083074442277	0.098330216771
2	4700	793.213768563824	0.098330216771
2	4703	793.312098780595	0.133042380901
2	4710	793.463463450469	0.098330216771
2	4713	793.56179366724	0.17457963358
2	4718	798.495811669161	0.098330216771
2	4723	798.836930408268	0.098330216771
2	4730	802.25957080111	0.098330216771
2	4733	802.357901017881	0.133545222099
2	4738	802.868507618713	0.098330216771
2	4743	805.296219315348	0.098330216771
2	4748	805.395274724796	0.098330216771
2	4753	806.811808450539	0.098330216771
2	4760	807.185217032784	0.098330216771
2	4763	807.283547249555	0.167053657711
2	4768	807.395377179924	0.098330216771
2	4774	807.7903462396	0.137273636484
2	4779	808.634500268437	0.098330216771
2	4784	808.815093385787	0.098330216771
2	4789	809.004828668562	0.098330216771
2	4794	809.80724216026	0.098330216771
2	4799	812.526486841948	0.098330216771
2	4804	813.210114075907	0.098330216771
2	4809	814.232931371281	0.098330216771
2	4814	815.480499689143	0.098330216771
2	4819	815.799115048398	0.098330216771
2	4824	816.683012856463	0.098330216771
2	4829	817.060831432573	0.098330216771
2	4834	817.22382034536	0.098330216771
2	4839	817.962367063099	0.098330216771
2	4844	818.627150865376	0.098330216771
2	4849	818.757659842874	0.098330216771
2	4854	818.965759598347	0.098330216771
2	4861	819.572027883976	0.098330216771
2	4864	819.670358100747	0.195199206868
2	4869	819.944608502478	0.098330216771
2	4874	820.2857551848	0.098330216771
2	4881	821.562992555727	0.098330216771
2	4884	821.661322772498	0.166606308662
2	4891	824.1173531635	0.098330216771
2	4896	824.215683380271	0.134144435479
2	4899	824.314013597042	0.160728417686
2	4904	825.832417572907	0.098330216771
2	4909	827.153130466177	0.098330216771
2	4914	828.090126669827	0.098330216771
2	4919	828.291622421874	0.098330216771
2	4926	832.417253370089	0.098330216771
2	4931	832.51558358686	0.17284582237
2	4934	832.613913803631	0.1844958345
2	4939	833.045268680831	0.098330216771
2	4944	834.046996154851	0.098330216771
2	4951	834.307580879809	0.098330216771
2	4956	834.40591109658	0.133744404039
2	4959	834.504241313351	0.169004513605
2	4966	835.286939985474	0.098330216771
2	4969	835.385270202245	0.143486550244
2	4974	836.96293158463	0.098330216771
2	4981	837.49674945465	0.098330216771
2	4984	837.595079671421	0.183200405783
2	4989	839.86766266093	0.098330216771
2	4994	840.052612533073	0.098330216771
2	4999	841.137435378609	0.098330216771
2	5004	842.117216478838	0.098330216771
2	5009	843.43355912651	0.098330216771
2	5014	844.3521754085	0.098330216771
2	5019	845.225123859068	0.098330216771
2	5025	845.965003748806	0.098330216771
2	5030	846.341974688514	0.098330216771
2	5035	846.771174847137	0.098330216771
2	5040	848.132296864962	0.098330216771
2	5045	848.36092557254	0.098330216771
2	5050	848.953485282793	0.098330216771
2	5055	850.605473459278	0.098330216771
2	5060	850.723408931191	0.098330216771
2	5065	851.194979360405	0.098330216771
2	5070	853.178398281903	0.098330216771
2	5075	853.839634472265	0.098330216771
2	5080	854.283256218456	0.098330216771
2	5085	856.02079369666	0.098330216771
2	5090	859.083377563922	0.098330216771
2	5095	859.695075256357	0.098330216771
2	5100	860.714712314389	0.098330216771
2	5105	860.908723630243	0.098330216771
2	5110	861.580705957073	0.098330216771
2	5115	861.739405267606	0.098330216771
2	5120	861.890406050292	0.098330216771
2	5125	862.128177299432	0.098330216771
2	5130	862.286134503831	0.098330216771
2	5135	862.981542992186	0.098330216771
2	5140	863.540970278497	0.098330216771
2	5147	864.747331328058	0.098330216771
2	5150	864.845661544829	0.10988732207
2	5155	867.819101365435	0.098330216771
2	5160	869.430148960255	0.098330216771
2	5167	869.750838548166	0.098330216771
2	5170	869.849168764937	0.167196242368
2	5175	870.356819148948	0.098330216771
2	5180	872.328369003951	0.098330216771
2	5185	875.294393008938	0.098330216771
2	5190	875.508648377998	0.098330216771
2	5195	876.616281556288	0.098330216771
2	5200	877.030264600246	0.098330216771
2	5207	877.259890329919	0.098330216771
2	5210	877.35822054669	0.153570269406
2	5215	878.025515394777	0.098330216771
2	5222	878.226064468241	0.098330216771
2	5225	878.324394685012	0.192962528546
2	5230	879.529793693753	0.098330216771
2	5235	881.099772057267	0.098330216771
2	5240	881.91007535118	0.098330216771
2	5245	885.030226504479	0.098330216771
2	5250	886.257976282228	0.098330216771
2	5255	887.263241739729	0.098330216771
2	5260	888.200759718671	0.098330216771
2	5265	888.354187947136	0.098330216771
2	5270	889.052653923888	0.098330216771
2	5276	889.895598873752	0.098330216771
2	5283	891.242686917389	0.098330216771
2	5286	891.34101713416	0.160371176724
2	5291	891.810986839245	0.098330216771
2	5296	892.049862089472	0.098330216771
2	5301	893.147849175597	0.098330216771
2	5306	894.702756967488	0.098330216771
2	5311	895.03777965389	0.098330216771
2	5316	895.77416591299	0.098330216771
2	5321	896.051504078921	0.098330216771
2	5326	896.81648301634	0.098330216771
2	5331	897.279530525479	0.098330216771
2	5336	897.641080601512	0.098330216771
2	5343	897.897067024203	0.098330216771
2	5348	897.995397240974	0.138739803903
2	5351	898.093727457745	0.144553921677
2	5358	898.815636700142	0.098330216771
2	5361	898.913966916913	0.159744765476
2	5368	899.340005546125	0.098330216771
2	5373	899.438335762896	0.160180779058
2	5376	899.536665979667	0.167486991154
2	5381	901.778900320562	0.098330216771
2	5386	902.271116527368	0.098330216771
2	5391	902.733508646202	0.098330216771
2	5396	902.953831693385	0.098330216771
2	5401	904.526855369679	0.098330216771
2	5406	905.857651966797	0.098330216771
2	5411	907.673688668254	0.098330216771
2	5416	908.283500938057	0.098330216771
2	5421	908.490988337444	0.098330216771
2	5426	910.345070061754	0.098330216771
2	5431	912.3738144265	0.098330216771
2	5436	913.284015634119	0.098330216771
2	5441	914.876090009785	0.098330216771
2	5446	915.370736396197	0.098330216771
2	5451	918.873695142661	0.098330216771
2	5456	919.734260759589	0.098330216771
2	5461	920.198370783337	0.098330216771
2	5466	921.279038569908	0.098330216771
2	5471	922.292922342327	0.098330216771
2	5476	922.485111352624	0.098330216771
2	5481	925.197900518838	0.098330216771
2	5486	928.160333149062	0.098330216771
2	5491	928.49160873655	0.098330216771
2	5496	932.020169757967	0.098330216771
2	5501	932.40393706804	0.098330216771
2	5506	933.398063649055	0.098330216771
2	5511	933.550680444212	0.098330216771
2	5516	933.855816367714	0.098330216771
2	5521	934.508068923479	0.098330216771
2	5527	935.512887045194	0.098330216771
2	5534	935.798665177825	0.098330216771
2	5537	935.896995394596	0.180181880904
2	5542	936.335349672011	0.098330216771
2	5547	936.5372509726	0.098330216771
2	5552	937.030594039734	0.098330216771
2	5557	937.600644751159	0.098330216771
2	5562	938.051381858155	0.098330216771
2	5567	938.307059912907	0.098330216771
2	5572	940.506035892961	0.098330216771
2	5577	941.971213820479	0.098330216771
2	5582	943.518588473627	0.098330216771
2	5587	944.046646396781	0.098330216771
2	5592	946.269912735511	0.098330216771
2	5597	946.630731601962	0.098330216771
2	5604	946.745691086861	0.098330216771
2	5607	946.844021303632	0.137465911794
2	5612	947.0404131157	0.098330216771
2	5617	947.350552585093	0.098330216771
2	5622	947.595654842959	0.098330216771
2	5627	948.089129882448	0.098330216771
2	5632	948.213132797308	0.098330216771
2	5637	949.290057992546	0.098330216771
2	5642	950.408260274959	0.098330216771
2	5647	952.108393090219	0.098330216771
2	5652	952.42687694184	0.098330216771
2	5657	952.910001523997	0.098330216771
2	5662	956.062368333074	0.098330216771
2	5667	959.868745311349	0.098330216771
2	5672	960.814447475451	0.098330216771
2	5677	961.049128180573	0.098330216771
2	5682	961.904325095147	0.098330216771
2	5687	962.380014452514	0.098330216771
2	5692	962.629158079946	0.098330216771
2	5697	964.92809390905	0.098330216771
2	5702	965.702627730762	0.098330216771
2	5707	966.275219995158	0.098330216771
2	5712	967.415481570747	0.098330216771
2	5717	967.872410124044	0.098330216771
2	5722	968.60444237698	0.098330216771
2	5727	970.171574110746	0.098330216771
2	5732	971.46781016617	0.098330216771
2	5737	971.624740072555	0.098330216771
2	5742	972.138087479185	0.098330216771
2	5747	973.723542452481	0.098330216771
2	5752	975.275226311098	0.098330216771
2	5757	975.478458216113	0.098330216771
2	5762	976.521758589585	0.098330216771
2	5767	976.960608427663	0.098330216771
2	5772	980.084370578043	0.098330216771
2	5778	980.547599108102	0.098330216771
2	5785	981.752403600177	0.098330216771
2	5788	981.850733816948	0.103488934767
2	5793	982.925882831015	0.098330216771
2	5798	984.232468133804	0.098330216771
2	5805	985.065119777885	0.098330216771
2	5808	985.163449994656	0.18274929031
2	5813	985.634263065155	0.098330216771
2	5818	986.070612485806	0.098330216771
2	5823	986.317298087459	0.098330216771
2	5828	987.219406322764	0.098330216771
2	5833	987.702207195822	0.098330216771
2	5838	988.312960929817	0.098330216771
2	5843	989.489440176808	0.098330216771
2	5848	990.419874048258	0.098330216771
2	5853	990.656112185356	0.098330216771
2	5858	990.912423200695	0.098330216771
2	5863	993.056941458201	0.098330216771
2	5870	993.502010259158	0.098330216771
2	5873	993.600340475929	0.170985814863
2	5878	995.389511894352	0.098330216771
2	5883	995.846354519241	0.098330216771
2	5888	996.373607852133	0.098330216771
2	5893	996.740683768872	0.098330216771
2	5898	999.318206755131	0.098330216771
2	5903	999.552988135486	0.098330216771
2	5908	999.789659216269	0.098330216771
3	7	0.329879137968	0
3	10	0.428209354739	0.022275756839
3	15	0.570339619091	0
3	20	2.132154999497	0
3	25	2.621248730959	0
3	32	3.761096731706	0
3	35	3.859426948477	0.050418071568
3	42	5.294944440713	0
3	45	5.393274657484	0.04306694361
3	50	7.442692542653	0
3	55	7.844038456458	0
3	62	11.119227293297	0
3	65	11.217557510068	0.091220751682
3	70	11.79669917181	0
3	77	13.247162134503	0
3	80	13.345492351274	0.042210978022
3	85	13.9055643445	0
3	90	15.395645231269	0
3	95	15.638187670836	0
3	100	16.158753644186	0
3	105	16.371226305838	0
3	110	16.484341484598	0
3	115	18.021664932946	0
3	120	18.508645189025	0
3	125	19.867889822644	0
3	130	20.164036116396	0
3	135	21.118801605922	0
3	140	21.824080495162	0
3	145	22.188734673368	0
3	150	23.488126945454	0
3	155	23.693781015566	0
3	160	24.554452922517	0
3	165	25.176915320745	0
3	172	25.416003388509	0
3	175	25.51433360528	0.027648585328
3	180	27.765904654743	0
3	185	28.652901923658	0
3	190	29.352344188597	0
3	197	30.301650993033	0
3	202	30.399981209804	0.001847858464
3	205	30.498311426575	0.062884756443
3	210	32.166576830275	0
3	215	33.599683780965	0
3	220	33.827507223982	0
3	225	34.933524172467	0
3	230	35.818579019573	0
3	235	37.34838862722	0
3	240	37.922801610347	0
3	245	38.024207311092	0
3	250	38.362075964602	0
3	256	40.845159848632	0
3	261	42.01110842531	0
3	266	43.697757328659	0
3	271	43.87455886051	0
3	276	44.362476714762	0
3	281	47.177780378672	0
3	286	47.371150089087	0
3	291	47.599189507309	0
3	296	48.249426857742	0
3	303	48.787167238975	0
3	306	48.885497455746	0.015957594731
3	311	49.046912411347	0
3	316	49.422609813188	0
3	321	50.012854469364	0
3	326	50.466441023702	0
3	331	50.630207872673	0
3	336	54.081521275199	0
3	341	55.127486367394	0
3	346	55.735068801128	0
3	351	56.340438005793	0
3	356	57.692597730623	0
3	361	58.015665376681	0
3	366	61.624258322135	0
3	371	65.382580131666	0
3	376	65.814239803619	0
3	381	68.608749933674	0
3	386	69.445138836376	0
3	391	72.08656629348	0
3	396	72.363868812069	0
3	401	72.913354297067	0
3	406	74.308006933499	0
3	413	74.454826469823	0
3	416	74.553156686594	0.015665032077
3	421	75.007542748776	0
3	426	75.244505883544	0
3	431	75.516915332645	0
3	438	75.959168933116	0
3	441	76.057499149887	0.097505621243
3	446	77.075747835182	0
3	451	78.180999400932	0
3	456	78.682098596038	0
3	461	79.080625715398	0
3	466	81.380930094122	0
3	471	82.692649365822	0
3	476	83.521869933848	0
3	481	83.873702453658	0
3	486	85.353060009622	0
3	491	85.822598136007	0
3	496	87.40269435627	0
3	501	87.74739235486	0
3	507	88.820698640517	0
3	512	90.574654457391	0
3	517	91.995238863161	0
3	524	93.025525555553	0
3	527	93.123855772324	0.059833173496
3	534	93.960665301608	0
3	537	94.058995518379	0.030583608091
3	542	94.482293249566	0
3	547	95.496933516508	0
3	552	95.673513764974	0
3	557	96.57540410383	0
3	562	96.691501139609	0
3	567	98.55733663265	0
3	572	99.125763513181	0
3	577	99.582282066758	0
3	582	99.952676112253	0
3	587	100.612897378139	0
3	592	100.725029703889	0
3	597	101.711533706885	0
3	602	103.246101244298	0
3	607	104.135813272316	0
3	612	104.836203480071	0
3	617	105.706686182968	0
3	622	106.38496168545	0
3	627	106.795229692495	0
3	632	107.820555033498	0
3	637	109.306706626432	0
3	642	109.581584262325	0
3	647	111.566559989335	0
3	652	112.785736811768	0
3	657	112.89283785845	0
3	662	113.882594674307	0
3	667	114.1119586373	0
3	672	114.310106387102	0
3	677	114.680198634158	0
3	682	114.931449353592	0
3	687	115.284055164254	0
3	692	115.606802166436	0
3	697	117.308739408385	0
3	702	118.249560104494	0
3	707	118.888380287956	0
3	712	119.637527912022	0
3	717	122.097983362847	0
3	722	123.056462384701	0
3	727	123.179530153776	0
3	732	124.994713377483	0
3	737	125.142794101791	0
3	742	125.753720675712	0
3	747	128.408228868077	0
3	752	129.170721425476	0
3	758	130.929361985328	0
3	763	132.129028374706	0
3	768	132.357728336614	0
3	773	134.374644126839	0
3	778	135.602937689153	0
3	783	136.795906880661	0
3	788	137.011138008933	0
3	793	138.669783924173	0
3	798	139.601483000931	0
3	803	139.984033363649	0
3	808	140.369289274066	0
3	813	140.939974784989	0
3	818	142.322454653089	0
3	823	146.122325140633	0
3	828	148.265710999523	0
3	833	148.948816406236	0
3	838	149.933362209843	0
3	843	150.111768032778	0
3	850	150.860609885089	0
3	853	150.95894010186	0.075898318479
3	858	153.531881180568	0
3	863	153.800308128465	0
3	870	154.031170137275	0
3	873	154.129500354046	0.017105347007
3	878	154.320330540728	0
3	883	154.483441149742	0
3	888	155.801729231428	0
3	893	156.286269939136	0
3	900	157.452985095643	0
3	903	157.551315312414	0.076090319575
3	908	158.197299260412	0
3	913	158.757154523841	0
3	918	159.290661945476	0
3	925	160.532550728892	0
3	928	160.630880945663	0.044690855894
3	933	161.912442380791	0
3	938	162.89387320097	0
3	943	163.782919958835	0
3	948	164.803647684258	0
3	953	165.842298863135	0
3	958	166.905951073259	0
3	963	167.29285786151	0
3	968	168.336057867993	0
3	973	169.142934706779	0
3	984	170.410339050591	0
3	987	170.508669267362	0.0979799655
3	990	170.606999484133	0.120122108873
3	993	170.705329700904	0.197583029312
3	998	171.056161922739	0
3	1003	171.840177515141	0
3	1009	172.910848018718	0
3	1014	174.609506539978	0
3	1019	175.132997757612	0
3	1024	175.509949758048	0
3	1029	176.694654249885	0
3	1034	178.037621894212	0
3	1039	178.663279935492	0
3	1044	179.050246327891	0
3	1049	179.337319046575	0
3	1054	179.999190159412	0
3	1059	181.105666041878	0
3	1064	181.764305211638	0
3	1071	182.048773383509	0
3	1076	182.14710360028	0.089164750063
3	1079	182.245433817051	0.098198889882
3	1084	182.372849995097	0
3	1089	183.130735914293	0
3	1096	185.223230381255	0
3	1099	185.321560598026	0.090624259747
3	1104	186.938791680918	0
3	1109	187.292697081598	0
3	1114	187.524877976996	0
3	1119	187.748193868251	0
3	1124	187.964461944913	0
3	1129	189.498687934019	0
3	1134	191.573843157155	0
3	1141	194.002350717385	0
3	1144	194.100680934156	0.067831842854
3	1149	195.567614011192	0
3	1154	196.48527300709	0
3	1159	196.593907042033	0
3	1166	196.899048870635	0
3	1169	196.997379087406	0.092555573232
3	1174	197.906010027952	0
3	1179	199.323614863874	0
3	1184	199.992223634564	0
3	1189	201.702024863772	0
3	1194	202.408337983924	0
3	1199	203.614979725552	0
3	1204	205.234495785466	0
3	1209	207.14945681621	0
3	1216	207.307029353315	0
3	1219	207.405359570086	0.096345770111
3	1224	208.081007441244	0
3	1229	209.610063578779	0
3	1234	210.168221754477	0
3	1239	210.824641582863	0
3	1244	211.188553997616	0
3	1249	211.768790465263	0
3	1254	213.330587617853	0
3	1260	214.240587143875	0
3	1265	215.021445420744	0
3	1270	217.625850528154	0
3	1275	217.861818103995	0
3	1280	218.455255845482	0
3	1287	220.056343784849	0
3	1290	220.15467400162	0.094233448092
3	1295	220.508100221061	0
3	1300	221.525427096367	0
3	1305	221.639757092109	0
3	1310	222.041886166755	0
3	1315	222.946484512614	0
3	1320	223.144633810924	0
3	1325	223.647323120654	0
3	1330	223.855969268784	0
3	1337	224.118986708345	0
3	1340	224.217316925116	0.018637608517
3	1345	224.986029616349	0
3	1350	225.542431086407	0
3	1355	225.765282945472	0
3	1360	226.167637260319	0
3	1367	226.483187551402	0
3	1370	226.581517768173	0.092444284464
3	1375	227.178444780348	0
3	1382	228.095267519314	0
3	1387	228.193597736085	0.0978477044
3	1390	228.291927952856	0.007183442014
3	1395	228.695718597527	0
3	1400	232.826588570179	0
3	1407	234.431684868962	0
3	1410	234.530015085733	0.003368808596
3	1417	235.688624744142	0
3	1420	235.786954960913	0.035729327163
3	1425	237.34483787777	0
3	1430	238.965404372937	0
3	1435	239.382145934156	0
3	1440	239.546476950371	0
3	1445	239.994318695124	0
3	1450	240.386299283924	0
3	1455	241.986998264326	0
3	1460	243.312977839967	0
3	1467	244.188385759799	0
3	1470	244.28671597657	0.021704677376
3	1475	244.611205697529	0
3	1480	244.930291626617	0
3	1485	245.298145434486	0
3	1490	246.458022896826	0
3	1495	248.034856735638	0
3	1500	248.357274281559	0
3	1505	249.621339134371	0
3	1511	250.776856842782	0
3	1516	251.820754082373	0
3	1521	252.132789688358	0
3	1526	252.685216352854	0
3	1531	253.036052839886	0
3	1536	253.223649578301	0
3	1541	255.505289904174	0
3	1546	256.164536052591	0
3	1551	256.399392448211	0
3	1556	258.363836255151	0
3	1561	259.214613322331	0
3	1566	261.918050863108	0
3	1571	262.498125661919	0
3	1576	263.367603708443	0
3	1581	263.525948428787	0
3	1586	264.66265453709	0
3	1591	266.169990368656	0
3	1596	266.687487497888	0
3	1601	269.454014306598	0
3	1606	270.115752986009	0
3	1611	271.10933070448	0
3	1616	271.813746991545	0
3	1621	272.946521246607	0
3	1628	274.953629430835	0
3	1631	275.051959647606	0.070242992249
3	1636	275.621600942263	0
3	1641	277.962931738571	0
3	1646	278.726387837985	0
3	1653	279.798598703173	0
3	1656	279.896928919944	0.03791277092
3	1663	280.280958950511	0
3	1670	280.379289167282	0.025886578557
3	1673	280.477619384053	0.049569882808
3	1678	280.575949600824	0.134186450701
3	1683	280.674279817595	0.042403286217
3	1686	280.772610034366	0.043704448299
3	1691	281.376368735446	0
3	1696	282.994767332374	0
3	1701	283.66097953143	0
3	1706	284.496987756587	0
3	1711	284.941546520505	0
3	1716	285.900794130303	0
3	1721	286.69677756335	0
3	1726	287.191436395479	0
3	1731	288.240252839075	0
3	1736	288.618038451884	0
3	1743	289.842005270881	0
3	1746	289.940335487652	0.050587052191
3	1751	291.987883941829	0
3	1756	292.17444535939	0
3	1762	293.417976328412	0
3	1767	296.940670377017	0
3	1772	298.127970392244	0
3	1777	299.254430478833	0
3	1782	302.170512885966	0
3	1787	302.314437222312	0
3	1792	303.591348147612	0
3	1797	303.791708783993	0
3	1802	304.600408316505	0
3	1807	305.650449678411	0
3	1812	308.083038586556	0
3	1817	310.430304336589	0
3	1822	311.988269690556	0
3	1827	312.358372525685	0
3	1834	312.88038349429	0
3	1837	312.978713711061	0.002093628248
3	1842	313.666516905281	0
3	1847	314.978529580447	0
3	1852	315.170080679242	0
3	1857	315.524116938171	0
3	1862	317.52339747643	0
3	1867	321.762624447786	0
3	1872	322.710269633946	0
3	1879	324.997453408503	0
3	1882	325.095783625274	0.022951440226
3	1887	325.366198603304	0
3	1892	326.902884708167	0
3	1899	328.542581747222	0
3	1902	328.640911963993	0.032338636571
3	1907	330.280679437704	0
3	1912	330.780532371162	0
3	1917	331.392729142	0
3	1922	331.693318125548	0
3	1927	332.703819007808	0
3	1932	333.925494608028	0
3	1937	334.677514963523	0
3	1942	335.1244332508	0
3	1947	335.441343981126	0
3	1952	335.584216376494	0
3	1957	337.379722846034	0
3	1962	338.142174454278	0
3	1967	340.092410385448	0
3	1972	341.22728230343	0
3	1977	341.371167510541	0
3	1984	342.264105702238	0
3	1987	342.362435919009	0.023420567806
3	1992	342.957069990524	0
3	1997	343.180814072755	0
3	2002	345.754695285452	0
3	2007	346.050605466602	0
3	2013	346.706071437436	0
3	2018	347.294176438396	0
3	2023	348.191710529033	0
3	2028	348.396230700544	0
3	2033	348.647247235362	0
3	2038	352.052533242726	0
3	2043	352.415985372521	0
3	2048	353.074388883372	0
3	2053	353.390807781817	0
3	2058	354.561507106167	0
3	2063	356.076420664714	0
3	2068	356.870395765051	0
3	2075	358.03077614813	0
3	2078	358.129106364901	0.032376117762
3	2085	358.487773185839	0
3	2088	358.58610340261	0.06646051
3	2093	358.763878770094	0
3	2098	359.251646259969	0
3	2103	360.968412407629	0
3	2108	362.296965061035	0
3	2113	362.451872433436	0
3	2118	362.865297031301	0
3	2123	363.050886766736	0
3	2130	364.819696501855	0
3	2133	364.918026718626	0.046416426078
3	2140	365.349814810974	0
3	2143	365.448145027745	0.000631628869
3	2148	366.795109519702	0
3	2153	367.953161677045	0
3	2158	370.493659181049	0
3	2163	371.443876477959	0
3	2168	372.249889214174	0
3	2173	373.127101992206	0
3	2178	374.022538623615	0
3	2183	374.351054182679	0
3	2188	375.134401281109	0
3	2193	377.286863113833	0
3	2198	378.826979844456	0
3	2203	378.971194806641	0
3	2212	380.164651666022	0
3	2215	380.262981882793	0.068910034827
3	2218	380.361312099564	0.119232523105
3	2223	380.473431951726	0
3	2228	380.618533429126	0
3	2233	382.52416676495	0
3	2238	383.182787568534	0
3	2243	383.41382175972	0
3	2248	384.399097092121	0
3	2253	385.158786122287	0
3	2258	385.537133775879	0
3	2264	386.642247727573	0
3	2269	386.942030690064	0
3	2274	387.326751415228	0
3	2279	388.685306950129	0
3	2284	389.03036397916	0
3	2289	389.402691926865	0
3	2294	394.209767774861	0
3	2299	396.370664728899	0
3	2304	398.229029948279	0
3	2309	398.920352290176	0
3	2316	400.64779339516	0
3	2319	400.746123611931	0.030514922741
3	2324	400.949587249136	0
3	2329	402.837736631927	0
3	2334	403.490905129088	0
3	2339	404.164859871141	0
3	2344	404.961047018591	0
3	2349	405.38113017704	0
3	2354	405.569612028478	0
3	2359	406.284467342528	0
3	2364	406.622069155137	0
3	2369	411.336238235299	0
3	2374	411.812126907724	0
3	2381	412.002016730711	0
3	2384	412.100346947482	0.043181931398
3	2389	412.315545000992	0
3	2394	412.433527827952	0
3	2401	412.565665603368	0
3	2404	412.663995820139	0.027635514874
3	2409	414.692767039416	0
3	2414	416.336654255275	0
3	2419	416.992327712392	0
3	2424	418.188307391421	0
3	2429	419.242183111492	0
3	2434	420.446770118745	0
3	2439	421.376881368925	0
3	2444	421.828502180976	0
3	2449	423.164087355486	0
3	2454	424.961339219165	0
3	2459	425.087770127378	0
3	2468	426.136657590812	0
3	2471	426.234987807583	0.068740117073
3	2474	426.333318024354	0.135570090959
3	2479	427.086788039729	0
3	2484	427.329994246688	0
3	2489	427.484118460324	0
3	2494	427.761033407998	0
3	2499	428.162675512487	0
3	2504	428.395697899322	0
3	2509	429.160816497067	0
3	2515	432.107072184931	0
3	2520	432.736880902291	0
3	2525	433.807531116167	0
3	2530	434.133617260522	0
3	2537	434.652551675361	0
3	2540	434.750881892132	0.063455034853
3	2545	437.965820988191	0
3	2550	440.251512033468	0
3	2555	440.427820864505	0
3	2560	440.617199551609	0
3	2565	441.052108937967	0
3	2570	441.418188217195	0
3	2575	445.357078025789	0
3	2580	445.548494878152	0
3	2585	446.430135039258	0
3	2590	449.675361414991	0
3	2595	450.259278131912	0
3	2600	450.536369486488	0
3	2605	450.646375284642	0
3	2610	450.865000673456	0
3	2615	451.052942052995	0
3	2620	451.196979316748	0
3	2625	451.818521727827	0
3	2630	452.052073944121	0
3	2635	454.033493189224	0
3	2640	454.70995411862	0
3	2645	455.047072763393	0
3	2650	455.626241566111	0
3	2655	455.976434854914	0
3	2660	457.63258914425	0
3	2665	458.353198732083	0
3	2670	458.747800510801	0
3	2675	459.730627816926	0
3	2680	460.926476012325	0
3	2685	462.177191619201	0
3	2690	462.998624271259	0
3	2695	463.498913160711	0
3	2700	465.589183927499	0
3	2705	467.123557067331	0
3	2710	467.439357777147	0
3	2715	467.566873972122	0
3	2720	467.724930486406	0
3	2725	469.043354427899	0
3	2730	469.426027839511	0
3	2735	470.521215712166	0
3	2740	472.030754283169	0
3	2745	472.226350520818	0
3	2750	473.020541700694	0
3	2755	474.123032880956	0
3	2762	474.847791895079	0
3	2766	475.242760954755	0.378966778407
3	2771	475.750203372783	0
3	2778	476.348020689449	0
3	2781	476.44635090622	0.064062027279
3	2786	477.28049849339	0
3	2791	477.379156443699	0
3	2796	478.424425291146	0
3	2801	478.773307585985	0
3	2810	479.532745879668	0
3	2813	479.631076096439	0.07946449835
3	2816	479.72940631321	0.111435638904
3	2821	481.667122267886	0
3	2826	481.996494261346	0
3	2831	482.10951818564	0
3	2836	482.945799319995	0
3	2841	484.519695004996	0
3	2846	484.653200457109	0
3	2851	487.151953725128	0
3	2856	487.843662538896	0
3	2861	489.264527050706	0
3	2866	489.391935306383	0
3	2871	491.511059578253	0
3	2878	492.889911993889	0
3	2881	492.98824221066	0.08155312199
3	2886	493.352716474821	0
3	2891	494.328865164778	0
3	2896	494.6726358398	0
3	2901	494.857043478035	0
3	2906	495.344535065828	0
3	2911	497.227236665656	0
3	2916	498.724673130516	0
3	2921	499.086072241188	0
3	2926	499.280784278719	0
3	2931	500.10818515067	0
3	2936	500.296902676285	0
3	2941	500.652111897271	0
3	2946	500.837510398778	0
3	2955	503.975683614827	0
3	2958	504.074013831598	0.059405171228
3	2961	504.172344048369	0.136911861695
3	2966	506.22733767505	0
3	2971	508.458442188793	0
3	2976	513.840111125507	0
3	2981	514.078919068817	0
3	2986	514.751068674274	0
3	2993	516.128015030485	0
3	2996	516.226345247256	0.079926070928
3	3001	517.357918311317	0
3	3008	517.757363004079	0
3	3011	517.85569322085	0.097757688855
3	3017	518.408711129729	0
3	3022	518.535011079449	0
3	3027	519.690124550458	0
3	3032	519.866177577008	0
3	3037	520.985807743973	0
3	3042	521.86904942614	0
3	3047	522.077771673306	0
3	3054	522.188086943818	0
3	3057	522.286417160589	0.019990186081
3	3062	522.562100935085	0
3	3067	523.363380734619	0
3	3072	523.990263327127	0
3	3077	524.374131604067	0
3	3082	524.842405191988	0
3	3087	526.112859820454	0
3	3092	527.305193847796	0
3	3097	528.103481758397	0
3	3102	529.216983924083	0
3	3107	529.422494417852	0
3	3112	533.285383621012	0
3	3117	533.686347090798	0
3	3122	533.971287501386	0
3	3127	536.627040265948	0
3	3134	536.749394019823	0
3	3137	536.847724236594	0.036700834821
3	3142	538.035987680476	0
3	3149	539.32289637253	0
3	3152	539.421226589301	0.05884123068
3	3159	539.721088518748	0
3	3162	539.819418735519	0.011872459838
3	3167	542.189670331557	0
3	3172	542.852220495427	0
3	3179	545.514088536736	0
3	3182	545.612418753507	0.093894467749
3	3187	547.988649583335	0
3	3192	549.157420785032	0
3	3197	549.589171052857	0
3	3202	550.59732745032	0
3	3211	550.943828564007	0
3	3214	551.042158780778	0.058473566293
3	3217	551.140488997549	0.135792973052
3	3222	551.568213958788	0
3	3227	551.839025857041	0
3	3232	552.33055411469	0
3	3237	552.568988433588	0
3	3242	552.876848702248	0
3	3247	553.073606668519	0
3	3252	553.689743863576	0
3	3257	554.182124089669	0
3	3262	558.191359448381	0
3	3268	558.586328508057	0.188203995369
3	3273	559.332474966517	0
3	3278	559.835994602062	0
3	3283	560.306902256545	0
3	3288	560.481439589704	0
3	3295	562.066904449772	0
3	3298	562.165234666543	0.068341379052
3	3303	563.819298977842	0
3	3310	564.20403846346	0
3	3313	564.302368680231	0.025131147189
3	3318	564.419726446324	0
3	3323	564.839231583272	0
3	3330	565.146192936938	0
3	3333	565.244523153709	0.040634766179
3	3338	565.405952812965	0
3	3343	566.3587008634	0
3	3348	566.554137867268	0
3	3353	567.1284217318	0
3	3358	569.260780464562	0
3	3363	569.453340382148	0
3	3368	570.393592628416	0
3	3373	570.571408095501	0
3	3378	572.112800231179	0
3	3383	573.646638414524	0
3	3390	573.971360753471	0
3	3393	574.069690970242	0.006620966227
3	3398	574.177829876167	0
3	3403	574.84481009372	0
3	3408	575.424839270051	0
3	3413	575.704732606316	0
3	3418	575.866250600467	0
3	3423	577.6260834742	0
3	3428	578.447324651569	0
3	3433	579.077967225693	0
3	3438	582.099465677608	0
3	3443	582.455408637448	0
3	3448	585.730900740956	0
3	3453	588.245781917556	0
3	3458	589.036298050854	0
3	3463	591.572819818552	0
3	3468	593.433955544236	0
3	3473	594.159662276472	0
3	3478	595.435634059427	0
3	3483	596.636604454835	0
3	3488	598.785802457386	0
3	3493	599.426100019755	0
3	3500	599.699271749602	0
3	3503	599.797601966373	0.048349329286
3	3508	601.799059872221	0
3	3513	602.446146131026	0
3	3519	603.007402905771	0
3	3524	604.525570631138	0
3	3529	604.855424992403	0
3	3534	605.104821686864	0
3	3539	605.324373473242	0
3	3544	605.885157080071	0
3	3549	606.269839375284	0
3	3554	607.162677943274	0
3	3559	607.893070277489	0
3	3564	608.119796732292	0
3	3569	608.460821827159	0
3	3574	609.730031175124	0
3	3579	609.833853117283	0
3	3584	610.674154797799	0
3	3589	611.067839134293	0
3	3594	612.207593326032	0
3	3599	612.545059288993	0
3	3604	613.163873930998	0
3	3609	613.412821357686	0
3	3614	614.008667538032	0
3	3619	615.467773866444	0
3	3624	615.805165717142	0
3	3629	616.985086828409	0
3	3634	618.948723540416	0
3	3639	619.13613908854	0
3	3644	619.509469785645	0
3	3649	620.092711177003	0
3	3654	620.820446220871	0
3	3659	621.785874112642	0
3	3664	622.406935829491	0
3	3669	623.102909827256	0
3	3674	624.712779094348	0
3	3679	625.172266126081	0
3	3684	625.372705237568	0
3	3689	628.432622640318	0
3	3694	628.769023547361	0
3	3699	629.091078036944	0
3	3704	630.002990424548	0
3	3709	630.112851128035	0
3	3716	630.769419384925	0
3	3719	630.867749601696	0.028532995101
3	3724	631.501862243117	0
3	3729	631.87191079012	0
3	3734	632.243276869403	0
3	3741	632.891958220351	0
3	3744	632.990288437122	0.067920312598
3	3751	633.700373443029	0
3	3754	633.7987036598	0.09043420635
3	3759	636.131167964397	0
3	3764	636.361309582077	0
3	3770	636.90999843069	0
3	3775	637.117182950969	0
3	3780	637.619100150244	0
3	3787	637.763827445489	0
3	3790	637.86215766226	0.064496952018
3	3795	638.59237232444	0
3	3800	639.43905105992	0
3	3805	641.229050319665	0
3	3810	644.492328888122	0
3	3817	644.795637703395	0
3	3820	644.893967920166	0.075960922319
3	3825	645.399034650639	0
3	3830	646.705413819507	0
3	3835	648.014344196987	0
3	3840	649.605860878045	0
3	3847	649.948389937858	0
[...]
8	2038	352.052533242726	0
8	2043	352.415985372521	0
8	2048	353.074388883372	0
8	2053	353.390807781817	0
8	2058	354.561507106167	0
8	2063	356.076420664714	0
8	2068	356.870395765051	0
8	2075	358.03077614813	0
8	2078	358.129106364901	0
8	2085	358.487773185839	0
8	2088	358.58610340261	0
8	2093	358.763878770094	0
8	2098	359.251646259969	0
8	2103	360.968412407629	0
8	2108	362.296965061035	0
8	2113	362.451872433436	0
8	2118	362.865297031301	0
8	2123	363.050886766736	0
8	2130	364.819696501855	0
8	2133	364.918026718626	0
8	2140	365.349814810974	0
8	2143	365.448145027745	0
8	2148	366.795109519702	0
8	2153	367.953161677045	0
8	2158	370.493659181049	0
8	2163	371.443876477959	0
8	2168	372.249889214174	0
8	2173	373.127101992206	0
8	2178	374.022538623615	0
8	2183	374.351054182679	0
8	2188	375.134401281109	0
8	2193	377.286863113833	0
8	2198	378.826979844456	0
8	2203	378.971194806641	0
8	2212	380.164651666022	0
8	2215	380.262981882793	0
8	2218	380.361312099564	0
8	2223	380.473431951726	0
8	2228	380.618533429126	0
8	2233	382.52416676495	0
8	2238	383.182787568534	0
8	2243	383.41382175972	0
8	2248	384.399097092121	0
8	2253	385.158786122287	0
8	2258	385.537133775879	0
8	2264	386.642247727573	0
8	2269	386.942030690064	0
8	2274	387.326751415228	0
8	2279	388.685306950129	0
8	2284	389.03036397916	0
8	2289	389.402691926865	0
8	2294	394.209767774861	0
8	2299	396.370664728899	0
8	2304	398.229029948279	0
8	2309	398.920352290176	0
8	2316	400.64779339516	0
8	2319	400.746123611931	0
8	2324	400.949587249136	0
8	2329	402.837736631927	0
8	2334	403.490905129088	0
8	2339	404.164859871141	0
8	2344	404.961047018591	0
8	2349	405.38113017704	0
8	2354	405.569612028478	0
8	2359	406.284467342528	0
8	2364	406.622069155137	0
8	2369	411.336238235299	0
8	2374	411.812126907724	0
8	2381	412.002016730711	0
8	2384	412.100346947482	0
8	2389	412.315545000992	0
8	2394	412.433527827952	0
8	2401	412.565665603368	0
8	2404	412.663995820139	0
8	2409	414.692767039416	0
8	2414	416.336654255275	0
8	2419	416.992327712392	0
8	2424	418.188307391421	0
8	2429	419.242183111492	0
8	2434	420.446770118745	0
8	2439	421.376881368925	0
8	2444	421.828502180976	0
8	2449	423.164087355486	0
8	2454	424.961339219165	0
8	2459	425.087770127378	0
8	2468	426.136657590812	0
8	2471	426.234987807583	0
8	2474	426.333318024354	0
8	2479	427.086788039729	0
8	2484	427.329994246688	0
8	2489	427.484118460324	0
8	2494	427.761033407998	0
8	2499	428.162675512487	0
8	2504	428.395697899322	0
8	2509	429.160816497067	0
8	2515	432.107072184931	0
8	2520	432.736880902291	0
8	2525	433.807531116167	0
8	2530	434.133617260522	0
8	2537	434.652551675361	0
8	2540	434.750881892132	0
8	2545	437.965820988191	0
8	2550	440.251512033468	0
8	2555	440.427820864505	0
8	2560	440.617199551609	0
8	2565	441.052108937967	0
8	2570	441.418188217195	0
8	2575	445.357078025789	0
8	2580	445.548494878152	0
8	2585	446.430135039258	0
8	2590	449.675361414991	0
8	2595	450.259278131912	0
8	2600	450.536369486488	0
8	2605	450.646375284642	0
8	2610	450.865000673456	0
8	2615	451.052942052995	0
8	2620	451.196979316748	0
8	2625	451.818521727827	0
8	2630	452.052073944121	0
8	2635	454.033493189224	0
8	2640	454.70995411862	0
8	2645	455.047072763393	0
8	2650	455.626241566111	0
8	2655	455.976434854914	0
8	2660	457.63258914425	0
8	2665	458.353198732083	0
8	2670	458.747800510801	0
8	2675	459.730627816926	0
8	2680	460.926476012325	0
8	2685	462.177191619201	0
8	2690	462.998624271259	0
8	2695	463.498913160711	0
8	2700	465.589183927499	0
8	2705	467.123557067331	0
8	2710	467.439357777147	0
8	2715	467.566873972122	0
8	2720	467.724930486406	0
8	2725	469.043354427899	0
8	2730	469.426027839511	0
8	2735	470.521215712166	0
8	2740	472.030754283169	0
8	2745	472.226350520818	0
8	2750	473.020541700694	0
8	2755	474.123032880956	0
8	2762	474.847791895079	0
8	2766	475.242760954755	0
8	2771	475.750203372783	0
8	2778	476.348020689449	0
8	2781	476.44635090622	0
8	2786	477.28049849339	0
8	2791	477.379156443699	0
8	2796	478.424425291146	0
8	2801	478.773307585985	0
8	2810	479.532745879668	0
8	2813	479.631076096439	0
8	2816	479.72940631321	0
8	2821	481.667122267886	0
8	2826	481.996494261346	0
8	2831	482.10951818564	0
8	2836	482.945799319995	0
8	2841	484.519695004996	0
8	2846	484.653200457109	0
8	2851	487.151953725128	0
8	2856	487.843662538896	0
8	2861	489.264527050706	0
8	2866	489.391935306383	0
8	2871	491.511059578253	0
8	2878	492.889911993889	0
8	2881	492.98824221066	0
8	2886	493.352716474821	0
8	2891	494.328865164778	0
8	2896	494.6726358398	0
8	2901	494.857043478035	0
8	2906	495.344535065828	0
8	2911	497.227236665656	0
8	2916	498.724673130516	0
8	2921	499.086072241188	0
8	2926	499.280784278719	0
8	2931	500.10818515067	0
8	2936	500.296902676285	0
8	2941	500.652111897271	0
8	2946	500.837510398778	0
8	2955	503.975683614827	0
8	2958	504.074013831598	0
8	2961	504.172344048369	0
8	2966	506.22733767505	0
8	2971	508.458442188793	0
8	2976	513.840111125507	0
8	2981	514.078919068817	0
8	2986	514.751068674274	0
8	2993	516.128015030485	0
8	2996	516.226345247256	0
8	3001	517.357918311317	0
8	3008	517.757363004079	0
8	3011	517.85569322085	0
8	3017	518.408711129729	0
8	3022	518.535011079449	0
8	3027	519.690124550458	0
8	3032	519.866177577008	0
8	3037	520.985807743973	0
8	3042	521.86904942614	0
8	3047	522.077771673306	0
8	3054	522.188086943818	0
8	3057	522.286417160589	0
8	3062	522.562100935085	0
8	3067	523.363380734619	0
8	3072	523.990263327127	0
8	3077	524.374131604067	0
8	3082	524.842405191988	0
8	3087	526.112859820454	0
8	3092	527.305193847796	0
8	3097	528.103481758397	0
8	3102	529.216983924083	0
8	3107	529.422494417852	0
8	3112	533.285383621012	0
8	3117	533.686347090798	0
8	3122	533.971287501386	0
8	3127	536.627040265948	0
8	3134	536.749394019823	0
8	3137	536.847724236594	0
8	3142	538.035987680476	0
8	3149	539.32289637253	0
8	3152	539.421226589301	0
8	3159	539.721088518748	0
8	3162	539.819418735519	0
8	3167	542.189670331557	0
8	3172	542.852220495427	0
8	3179	545.514088536736	0
8	3182	545.612418753507	0
8	3187	547.988649583335	0
8	3192	549.157420785032	0
8	3197	549.589171052857	0
8	3202	550.59732745032	0
8	3211	550.943828564007	0
8	3214	551.042158780778	0
8	3217	551.140488997549	0
8	3222	551.568213958788	0
8	3227	551.839025857041	0
8	3232	552.33055411469	0
8	3237	552.568988433588	0
8	3242	552.876848702248	0
8	3247	553.073606668519	0
8	3252	553.689743863576	0
8	3257	554.182124089669	0
8	3262	558.191359448381	0
8	3268	558.586328508057	0
8	3273	559.332474966517	0
8	3278	559.835994602062	0
8	3283	560.306902256545	0
8	3288	560.481439589704	0
8	3295	562.066904449772	0
8	3298	562.165234666543	0
8	3303	563.819298977842	0
8	3310	564.20403846346	0
8	3313	564.302368680231	0
8	3318	564.419726446324	0
8	3323	564.839231583272	0
8	3330	565.146192936938	0
8	3333	565.244523153709	0
8	3338	565.405952812965	0
8	3343	566.3587008634	0
8	3348	566.554137867268	0
8	3353	567.1284217318	0
8	3358	569.260780464562	0
8	3363	569.453340382148	0
8	3368	570.393592628416	0
8	3373	570.571408095501	0
8	3378	572.112800231179	0
8	3383	573.646638414524	0
8	3390	573.971360753471	0
8	3393	574.069690970242	0
8	3398	574.177829876167	0
8	3403	574.84481009372	0
8	3408	575.424839270051	0
8	3413	575.704732606316	0
8	3418	575.866250600467	0
8	3423	577.6260834742	0
8	3428	578.447324651569	0
8	3433	579.077967225693	0
8	3438	582.099465677608	0
8	3443	582.455408637448	0
8	3448	585.730900740956	0
8	3453	588.245781917556	0
8	3458	589.036298050854	0
8	3463	591.572819818552	0
8	3468	593.433955544236	0
8	3473	594.159662276472	0
8	3478	595.435634059427	0
8	3483	596.636604454835	0
8	3488	598.785802457386	0
8	3493	599.426100019755	0
8	3500	599.699271749602	0
8	3503	599.797601966373	0
8	3508	601.799059872221	0
8	3513	602.446146131026	0
8	3519	603.007402905771	0
8	3524	604.525570631138	0
8	3529	604.855424992403	0
8	3534	605.104821686864	0
8	3539	605.324373473242	0
8	3544	605.885157080071	0
8	3549	606.269839375284	0
8	3554	607.162677943274	0
8	3559	607.893070277489	0
8	3564	608.119796732292	0
8	3569	608.460821827159	0
8	3574	609.730031175124	0
8	3579	609.833853117283	0
8	3584	610.674154797799	0
8	3589	611.067839134293	0
8	3594	612.207593326032	0
8	3599	612.545059288993	0
8	3604	613.163873930998	0
8	3609	613.412821357686	0
8	3614	614.008667538032	0
8	3619	615.467773866444	0
8	3624	615.805165717142	0
8	3629	616.985086828409	0
8	3634	618.948723540416	0
8	3639	619.13613908854	0
8	3644	619.509469785645	0
8	3649	620.092711177003	0
8	3654	620.820446220871	0
8	3659	621.785874112642	0
8	3664	622.406935829491	0
8	3669	623.102909827256	0
8	3674	624.712779094348	0
8	3679	625.172266126081	0
8	3684	625.372705237568	0
8	3689	628.432622640318	0
8	3694	628.769023547361	0
8	3699	629.091078036944	0
8	3704	630.002990424548	0
8	3709	630.112851128035	0
8	3716	630.769419384925	0
8	3719	630.867749601696	0
8	3724	631.501862243117	0
8	3729	631.87191079012	0
8	3734	632.243276869403	0
8	3741	632.891958220351	0
8	3744	632.990288437122	0
8	3751	633.700373443029	0
8	3754	633.7987036598	0
8	3759	636.131167964397	0
8	3764	636.361309582077	0
8	3770	636.90999843069	0
8	3775	637.117182950969	0
8	3780	637.619100150244	0
8	3787	637.763827445489	0
8	3790	637.86215766226	0
8	3795	638.59237232444	0
8	3800	639.43905105992	0
8	3805	641.229050319665	0
8	3810	644.492328888122	0
8	3817	644.795637703395	0
8	3820	644.893967920166	0
8	3825	645.399034650639	0
8	3830	646.705413819507	0
8	3835	648.014344196987	0
8	3840	649.605860878045	0
8	3847	649.948389937858	0
8	3850	650.046720154629	0
8	3855	650.199469206635	0
8	3860	651.136156140794	0
8	3865	651.443804123837	0
8	3870	652.030366755329	0
8	3877	652.329138548363	0
8	3880	652.427468765134	0
8	3885	655.283932872432	0
8	3892	656.089037906921	0
8	3895	656.187368123692	0
8	3900	656.430746194495	0
8	3905	657.25236902454	0
8	3910	657.353468472226	0
8	3915	657.893167582789	0
8	3920	659.20833578678	0
8	3925	661.255832784836	0
8	3930	661.982120867908	0
8	3935	662.14413471997	0
8	3942	662.297508706903	0
8	3945	662.395838923674	0
8	3950	663.328635614291	0
8	3957	663.949030907165	0
8	3960	664.047361123936	0
8	3965	666.872558251362	0
8	3970	667.346050129798	0
8	3975	667.961720487013	0
8	3980	668.480428388782	0
8	3985	669.709316772086	0
8	3990	669.960979919657	0
8	3995	670.863657899699	0
8	4000	673.854276718252	0
8	4005	675.086104497794	0
8	4012	675.653265224819	0
8	4015	675.75159544159	0
8	4021	677.499780392125	0
8	4026	677.702696490131	0
8	4033	678.42687207266	0
8	4038	678.525202289431	0
8	4043	678.623532506202	0
8	4046	678.721862722973	0
8	4051	679.682043195157	0
8	4056	681.723434700744	0
8	4061	682.651703752104	0
8	4066	683.77280721745	0
8	4071	685.209531345491	0
8	4076	685.307963752375	0
8	4081	685.76370117164	0
8	4086	687.728290526194	0
8	4091	691.826677478101	0
8	4096	692.221735437223	0
8	4103	695.056829903932	0
8	4106	695.155160120703	0
8	4111	695.433267419603	0
8	4116	696.487506212961	0
8	4121	698.570310985394	0
8	4126	698.817763915361	0
8	4131	699.912526888252	0
8	4136	702.768499775844	0
8	4141	704.906197085133	0
8	4146	705.315712993009	0
8	4151	706.494476661165	0
8	4156	706.955997763709	0
8	4163	707.255155922993	0
8	4166	707.353486139764	0
8	4171	707.584228147537	0
8	4176	709.106186476865	0
8	4181	710.322581418991	0
8	4186	711.197512638668	0
8	4191	711.887822700485	0
8	4198	712.206206014724	0
8	4201	712.304536231495	0
8	4206	713.097937025619	0
8	4211	714.583779710408	0
8	4216	715.001105647474	0
8	4221	715.249684649815	0
8	4226	715.736781031349	0
8	4231	716.031834036784	0
8	4236	716.302303981819	0
8	4241	716.82309512388	0
8	4246	716.934446409374	0
8	4251	718.149954200871	0
8	4256	718.776101114832	0
8	4261	722.201266081035	0
8	4266	722.700487709101	0
8	4272	723.739610744148	0
8	4277	724.995897147244	0
8	4282	725.224073169465	0
8	4287	725.45817848582	0
8	4292	725.571011449117	0
8	4297	726.417778044296	0
8	4302	726.960477441842	0
8	4307	727.198427190117	0
8	4312	729.01813720486	0
8	4317	729.175403655755	0
8	4322	729.921893639235	0
8	4327	730.072339947507	0
8	4332	730.999594283047	0
8	4337	731.27544593672	0
8	4342	732.07285305108	0
8	4347	733.980470418036	0
8	4352	734.181065851015	0
8	4357	737.399976739501	0
8	4362	740.235869781932	0
8	4369	740.896300569808	0
8	4372	740.994630786579	0
8	4377	741.1044548655	0
8	4382	742.010664329818	0
8	4387	745.268891284405	0
8	4392	745.479420524515	0
8	4397	745.662796803398	0
8	4402	746.15690116406	0
8	4407	746.899044161144	0
8	4412	748.416642236931	0
8	4417	749.505436233553	0
8	4424	750.147586554047	0
8	4427	750.245916770818	0
8	4432	750.405861443838	0
8	4439	750.832149454427	0
8	4442	750.930479671198	0
8	4447	751.730736050368	0
8	4452	751.855798118444	0
8	4457	753.726504622326	0
8	4462	754.546303876546	0
8	4467	755.898145438437	0
8	4472	756.591519395109	0
8	4477	757.541609562101	0
8	4482	757.661825243274	0
8	4487	758.388805791157	0
8	4492	759.348493678351	0
8	4497	759.739680216392	0
8	4502	761.766808864418	0
8	4507	764.457559106521	0
8	4514	765.670723327202	0
8	4517	765.769053543973	0
8	4523	767.807662318291	0
8	4528	769.585092703822	0
8	4533	771.386233935392	0
8	4538	773.454014582696	0
8	4543	773.572004890744	0
8	4548	773.680663759411	0
8	4553	773.802355685539	0
8	4558	774.48644516174	0
8	4563	774.737131551345	0
8	4568	774.983910713412	0
8	4573	777.946961489609	0
8	4578	778.602303309035	0
8	4583	778.733201542549	0
8	4588	779.89458940021	0
8	4593	780.496306287053	0
8	4598	781.246242210561	0
8	4603	782.121682583212	0
8	4608	782.552951358467	0
8	4613	782.810262483485	0
8	4618	782.932044296359	0
8	4623	783.29109951706	0
8	4628	783.491526939914	0
8	4633	785.30360962669	0
8	4638	785.719757874591	0
8	4643	787.138848834743	0
8	4648	787.258934627472	0
8	4655	788.829143103716	0
8	4660	788.927473320487	0
8	4665	789.025803537258	0
8	4668	789.124133754029	0
8	4673	789.780220254749	0
8	4678	791.120081850687	0
8	4683	791.218687611974	0
8	4688	791.988899179155	0
8	4693	793.083074442277	0
8	4700	793.213768563824	0
8	4703	793.312098780595	0
8	4710	793.463463450469	0
8	4713	793.56179366724	0
8	4718	798.495811669161	0
8	4723	798.836930408268	0
8	4730	802.25957080111	0
8	4733	802.357901017881	0
8	4738	802.868507618713	0
8	4743	805.296219315348	0
8	4748	805.395274724796	0
8	4753	806.811808450539	0
8	4760	807.185217032784	0
8	4763	807.283547249555	0
8	4768	807.395377179924	0
8	4774	807.7903462396	0
8	4779	808.634500268437	0
8	4784	808.815093385787	0
8	4789	809.004828668562	0
8	4794	809.80724216026	0
8	4799	812.526486841948	0
8	4804	813.210114075907	0
8	4809	814.232931371281	0
8	4814	815.480499689143	0
8	4819	815.799115048398	0
8	4824	816.683012856463	0
8	4829	817.060831432573	0
8	4834	817.22382034536	0
8	4839	817.962367063099	0
8	4844	818.627150865376	0
8	4849	818.757659842874	0
8	4854	818.965759598347	0
8	4861	819.572027883976	0
8	4864	819.670358100747	0
8	4869	819.944608502478	0
8	4874	820.2857551848	0
8	4881	821.562992555727	0
8	4884	821.661322772498	0
8	4891	824.1173531635	0
8	4896	824.215683380271	0
8	4899	824.314013597042	0
8	4904	825.832417572907	0
8	4909	827.153130466177	0
8	4914	828.090126669827	0
8	4919	828.291622421874	0
8	4926	832.417253370089	0
8	4931	832.51558358686	0
8	4934	832.613913803631	0
8	4939	833.045268680831	0
8	4944	834.046996154851	0
8	4951	834.307580879809	0
8	4956	834.40591109658	0
8	4959	834.504241313351	0
8	4966	835.286939985474	0
8	4969	835.385270202245	0
8	4974	836.96293158463	0
8	4981	837.49674945465	0
8	4984	837.595079671421	0
8	4989	839.86766266093	0
8	4994	840.052612533073	0
8	4999	841.137435378609	0
8	5004	842.117216478838	0
8	5009	843.43355912651	0
8	5014	844.3521754085	0
8	5019	845.225123859068	0
8	5025	845.965003748806	0
8	5030	846.341974688514	0
8	5035	846.771174847137	0
8	5040	848.132296864962	0
8	5045	848.36092557254	0
8	5050	848.953485282793	0
8	5055	850.605473459278	0
8	5060	850.723408931191	0
8	5065	851.194979360405	0
8	5070	853.178398281903	0
8	5075	853.839634472265	0
8	5080	854.283256218456	0
8	5085	856.02079369666	0
8	5090	859.083377563922	0
8	5095	859.695075256357	0
8	5100	860.714712314389	0
8	5105	860.908723630243	0
8	5110	861.580705957073	0
8	5115	861.739405267606	0
8	5120	861.890406050292	0
8	5125	862.128177299432	0
8	5130	862.286134503831	0
8	5135	862.981542992186	0
8	5140	863.540970278497	0
8	5147	864.747331328058	0
8	5150	864.845661544829	0
8	5155	867.819101365435	0
8	5160	869.430148960255	0
8	5167	869.750838548166	0
8	5170	869.849168764937	0
8	5175	870.356819148948	0
8	5180	872.328369003951	0
8	5185	875.294393008938	0
8	5190	875.508648377998	0
8	5195	876.616281556288	0
8	5200	877.030264600246	0
8	5207	877.259890329919	0
8	5210	877.35822054669	0
8	5215	878.025515394777	0
8	5222	878.226064468241	0
8	5225	878.324394685012	0
8	5230	879.529793693753	0
8	5235	881.099772057267	0
8	5240	881.91007535118	0
8	5245	885.030226504479	0
8	5250	886.257976282228	0
8	5255	887.263241739729	0
8	5260	888.200759718671	0
8	5265	888.354187947136	0
8	5270	889.052653923888	0
8	5276	889.895598873752	0
8	5283	891.242686917389	0
8	5286	891.34101713416	0
8	5291	891.810986839245	0
8	5296	892.049862089472	0
8	5301	893.147849175597	0
8	5306	894.702756967488	0
8	5311	895.03777965389	0
8	5316	895.77416591299	0
8	5321	896.051504078921	0
8	5326	896.81648301634	0
8	5331	897.279530525479	0
8	5336	897.641080601512	0
8	5343	897.897067024203	0
8	5348	897.995397240974	0
8	5351	898.093727457745	0
8	5358	898.815636700142	0
8	5361	898.913966916913	0
8	5368	899.340005546125	0
8	5373	899.438335762896	0
8	5376	899.536665979667	0
8	5381	901.778900320562	0
8	5386	902.271116527368	0
8	5391	902.733508646202	0
8	5396	902.953831693385	0
8	5401	904.526855369679	0
8	5406	905.857651966797	0
8	5411	907.673688668254	0
8	5416	908.283500938057	0
8	5421	908.490988337444	0
8	5426	910.345070061754	0
8	5431	912.3738144265	0
8	5436	913.284015634119	0
8	5441	914.876090009785	0
8	5446	915.370736396197	0
8	5451	918.873695142661	0
8	5456	919.734260759589	0
8	5461	920.198370783337	0
8	5466	921.279038569908	0
8	5471	922.292922342327	0
8	5476	922.485111352624	0
8	5481	925.197900518838	0
8	5486	928.160333149062	0
8	5491	928.49160873655	0
8	5496	932.020169757967	0
8	5501	932.40393706804	0
8	5506	933.398063649055	0
8	5511	933.550680444212	0
8	5516	933.855816367714	0
8	5521	934.508068923479	0
8	5527	935.512887045194	0
8	5534	935.798665177825	0
8	5537	935.896995394596	0
8	5542	936.335349672011	0
8	5547	936.5372509726	0
8	5552	937.030594039734	0
8	5557	937.600644751159	0
8	5562	938.051381858155	0
8	5567	938.307059912907	0
8	5572	940.506035892961	0
8	5577	941.971213820479	0
8	5582	943.518588473627	0
8	5587	944.046646396781	0
8	5592	946.269912735511	0
8	5597	946.630731601962	0
8	5604	946.745691086861	0
8	5607	946.844021303632	0
8	5612	947.0404131157	0
8	5617	947.350552585093	0
8	5622	947.595654842959	0
8	5627	948.089129882448	0
8	5632	948.213132797308	0
8	5637	949.290057992546	0
8	5642	950.408260274959	0
8	5647	952.108393090219	0
8	5652	952.42687694184	0
8	5657	952.910001523997	0
8	5662	956.062368333074	0
8	5667	959.868745311349	0
8	5672	960.814447475451	0
8	5677	961.049128180573	0
8	5682	961.904325095147	0
8	5687	962.380014452514	0
8	5692	962.629158079946	0
8	5697	964.92809390905	0
8	5702	965.702627730762	0
8	5707	966.275219995158	0
8	5712	967.415481570747	0
8	5717	967.872410124044	0
8	5722	968.60444237698	0
8	5727	970.171574110746	0
8	5732	971.46781016617	0
8	5737	971.624740072555	0
8	5742	972.138087479185	0
8	5747	973.723542452481	0
8	5752	975.275226311098	0
8	5757	975.478458216113	0
8	5762	976.521758589585	0
8	5767	976.960608427663	0
8	5772	980.084370578043	0
8	5778	980.547599108102	0
8	5785	981.752403600177	0
8	5788	981.850733816948	0
8	5793	982.925882831015	0
8	5798	984.232468133804	0
8	5805	985.065119777885	0
8	5808	985.163449994656	0
8	5813	985.634263065155	0
8	5818	986.070612485806	0
8	5823	986.317298087459	0
8	5828	987.219406322764	0
8	5833	987.702207195822	0
8	5838	988.312960929817	0
8	5843	989.489440176808	0
8	5848	990.419874048258	0
8	5853	990.656112185356	0
8	5858	990.912423200695	0
8	5863	993.056941458201	0
8	5870	993.502010259158	0
8	5873	993.600340475929	0
8	5878	995.389511894352	0
8	5883	995.846354519241	0
8	5888	996.373607852133	0
8	5893	996.740683768872	0
8	5898	999.318206755131	0
8	5903	999.552988135486	0
8	5908	999.789659216269	0

