version 2
run General-420-20240201-11:04:31-40057
attr configname General
attr datetime 20240201-11:04:31
attr experiment General
attr inifile main.ini
attr iterationvars "$0=1.0, $1=3.5, $2=30"
attr iterationvarsf 1.0,3.5,30-
attr measurement "$0=1.0, $1=3.5, $2=30"
attr network Rete
attr processid 40057
attr repetition 0
attr replication #0
attr resultdir results
attr runnumber 420
attr seedset 420
param Rete.lambda 1.0
param Rete.a 0.3s
param Rete.b 3.5s
param Rete.c 0.1s
param Rete.d 0.3s
param Rete.mu 3.0
param Rete.source2.interArrivalTime exponential(1s/lambda)
param Rete.source2.jobServiceTime exponential(1s/mu)
param Rete.source2.deadline uniform(a,b)
param Rete.server2.j 30
param Rete.server2.V uniform(c,d)

vector 0 Rete.passiveQueue queueLength:vector ETV
attr interpolationmode sample-hold
attr title "queue length, vector"
vector 1 Rete.sink lifeTime:vector ETV
attr interpolationmode none
attr title "lifetime of arrived jobs, vector"
attr unit s
vector 2 Rete.sink totalQueueingTime:vector ETV
attr interpolationmode none
attr title "the total time spent in queues by arrived jobs, vector"
attr unit s
vector 3 Rete.sink queuesVisited:vector ETV
attr interpolationmode none
attr title "the total number of queues visited by arrived jobs, vector"
vector 4 Rete.sink totalServiceTime:vector ETV
attr interpolationmode none
attr title "the total time spent  by arrived jobs, vector"
attr unit s
vector 5 Rete.sink totalDelayTime:vector ETV
attr interpolationmode none
attr title "the total time spent in delay nodes by arrived jobs, vector"
attr unit s
vector 6 Rete.sink delaysVisited:vector ETV
attr interpolationmode none
attr title "the total number of delays visited by arrived jobs, vector"
vector 7 Rete.sink generation:vector ETV
attr interpolationmode none
attr title "the generation of the arrived jobs, vector"
vector 8 Rete.passiveQueue queueingTime:vector ETV
attr interpolationmode none
attr title "queueing time at dequeue, vector"
attr unit s
0	0	0	0
0	15	2.889506116381	1
0	16	2.975296716137	0
0	20	3.003968571934	1
0	21	3.176417569632	0
0	50	9.504817790849	1
0	52	9.57474424053	2
0	53	9.650259273835	1
0	57	9.727080332701	2
0	58	9.85138012733	1
0	61	10.052500980825	0
0	85	12.797401794631	1
0	86	12.901772457741	0
0	95	15.451770350911	1
0	97	15.513016800281	2
0	98	15.594359614583	1
0	102	15.783687326782	2
0	103	15.795480468078	1
0	107	15.870501796101	2
0	108	15.996601321573	1
0	112	16.138909050985	2
0	113	16.197722175068	1
0	116	16.398843028563	0
0	135	20.046601554643	1
0	137	20.068592369696	2
0	138	20.204187222216	1
0	141	20.405308075711	0
0	145	20.506625013432	1
0	146	20.606428929206	0
0	241	39.703366991804	1
0	242	39.710945108869	0
0	246	39.855613581411	1
0	247	39.912065962364	0
0	256	40.994039704066	1
0	257	41.102216874435	0
0	281	44.132326879987	1
0	282	44.254476343374	0
0	286	44.451250911843	1
0	287	44.455597196869	0
0	312	50.597054062273	1
0	313	50.787862030773	0
0	357	60.439137021344	1
0	358	60.591808458114	0
0	367	61.140690424562	1
0	368	61.339618326835	0
0	402	68.177600986305	1
0	403	68.255465033882	0
0	427	72.202872089001	1
0	428	72.285140841077	0
0	498	89.684903421788	1
0	499	89.724097406287	0
0	558	102.201318658742	1
0	559	102.3910477975	0
0	578	107.145701176619	1
0	579	107.294322704518	0
0	609	111.229198010075	1
0	610	111.351137499622	0
0	629	116.464279200153	1
0	630	116.46551587528	0
0	644	116.95626541927	1
0	645	117.123372247094	0
0	659	118.226711963432	1
0	660	118.376094203368	0
0	664	118.477635181581	1
0	665	118.577215056863	0
0	669	118.774339699054	1
0	670	118.778335910358	0
0	704	123.343898382155	1
0	705	123.407309670478	0
0	709	123.508683847774	1
0	710	123.608430523973	0
0	744	128.954450138245	1
0	745	128.964349091662	0
0	785	135.585601692054	1
0	786	135.674994267099	0
0	800	142.082750491224	1
0	801	142.139418133068	0
0	815	143.991608861189	1
0	816	144.070582494629	0
0	825	145.700869970931	1
0	826	145.847732784843	0
0	845	152.022025895384	1
0	846	152.193493934238	0
0	850	152.218785474816	1
0	851	152.394614787733	0
0	855	152.493336520041	1
0	857	152.5840173146	2
0	858	152.595735641228	1
0	861	152.796856494723	0
0	905	167.420088021112	1
0	909	167.630198560761	2
0	910	167.669075545696	1
0	912	167.870196399191	0
0	926	172.580762698682	1
0	927	172.657796858659	0
0	956	177.528610985701	1
0	957	177.699076301614	0
0	981	184.68758059312	1
0	982	184.78831441495	0
0	996	186.38597883764	1
0	997	186.580749210186	0
0	1051	194.377278995007	1
0	1052	194.508323309735	0
0	1056	194.695984187419	1
0	1059	194.841555739383	0
0	1112	203.136012121406	1
0	1113	203.137832327909	0
0	1152	209.640796419553	1
0	1153	209.727448269674	0
0	1167	213.086262299175	1
0	1169	213.169459223991	2
0	1170	213.235549995171	1
0	1173	213.436670848666	0
0	1207	220.134720203914	1
0	1210	220.315648159724	0
0	1233	225.866435668635	1
0	1234	225.877088581425	0
0	1253	228.407707436293	1
0	1254	228.542948796105	0
0	1263	229.960147623772	1
0	1264	230.02818940899	0
0	1278	231.280734945215	1
0	1279	231.368407297499	0
0	1283	231.441921255281	1
0	1284	231.569528150994	0
0	1323	241.241372786984	1
0	1324	241.336328185738	0
0	1328	241.424803632678	1
0	1329	241.537449039233	0
0	1374	249.832878624145	1
0	1375	250.032708133573	0
0	1379	250.125103642519	1
0	1380	250.233828987068	0
0	1394	251.786246832255	1
0	1395	251.965770824011	0
0	1414	255.523536794192	1
0	1415	255.674293367298	0
0	1419	255.855843698656	1
0	1420	255.875414220793	0
0	1434	261.465030894854	1
0	1435	261.618119929464	0
0	1444	264.942814354691	1
0	1445	264.991087159185	0
0	1489	269.467869585096	1
0	1490	269.625457224215	0
0	1676	308.117353271929	1
0	1677	308.196332379788	0
0	1701	315.06595656264	1
0	1702	315.117578142465	0
0	1781	339.031911177177	1
0	1782	339.225708711329	0
0	1786	339.256283744171	1
0	1787	339.426829564824	0
0	1827	347.81579626787	1
0	1828	347.986116405085	0
0	1872	353.934568015422	1
0	1873	354.071112501839	0
0	1877	354.127201285225	1
0	1878	354.272233355334	0
0	1907	361.172470503164	1
0	1908	361.335609477338	0
0	1912	361.451059122937	1
0	1913	361.536730330833	0
0	1917	361.565638198053	1
0	1918	361.737851184328	0
0	1957	370.999065925289	1
0	1958	371.18804794739	0
0	1962	371.208998749485	1
0	1965	371.521280377038	0
0	2043	398.727340841744	1
0	2044	398.857746343097	0
0	2078	407.118952458825	1
0	2080	407.268344958919	2
0	2081	407.272647139189	1
0	2084	407.473767992684	0
0	2124	416.395466686978	1
0	2125	416.579989013721	0
0	2194	435.969629003701	1
0	2195	436.022340119577	0
0	2204	436.688151505329	1
0	2205	436.819564572089	0
0	2219	438.631194660969	1
0	2220	438.734400692421	0
0	2239	441.171759571562	1
0	2240	441.208542040318	0
0	2244	441.362948258242	1
0	2245	441.409662893813	0
0	2249	441.473786143712	1
0	2250	441.610783747308	0
0	2285	451.445777598319	1
0	2286	451.639342120689	0
0	2290	451.719675524734	1
0	2291	451.840462974184	0
0	2310	454.802653893213	1
0	2311	454.850930962796	0
0	2325	456.456121911478	1
0	2326	456.505044994306	0
0	2330	456.549455215689	1
0	2331	456.706165847801	0
0	2370	466.5945282271	1
0	2371	466.694460203022	0
0	2415	476.110975054957	1
0	2418	476.296918869887	0
0	2436	482.085451293318	1
0	2437	482.264025524799	0
0	2481	491.9368252085	1
0	2482	492.118671529829	0
0	2521	500.929486970068	1
0	2522	501.002203393192	0
0	2546	504.905212125324	1
0	2547	504.957850018271	0
0	2568	507.742876596682	1
0	2569	507.782020909459	0
0	2642	525.076846496654	1
0	2643	525.173689816731	0
0	2697	538.548778294049	1
0	2699	538.598596341711	2
0	2700	538.720189840799	1
0	2703	538.921310694294	0
0	2719	542.723597516445	1
0	2720	542.754139336153	0
0	2748	549.381660717557	1
0	2749	549.496083598492	0
0	2778	556.785302861048	1
0	2779	556.929332961382	0
0	2783	557.094481019419	1
0	2784	557.130453814877	0
0	2813	562.777828333887	1
0	2814	562.919993084016	0
0	2823	563.309934541683	1
0	2824	563.508914332924	0
0	2828	563.526369723292	1
0	2829	563.710035186419	0
0	2838	564.206252655138	1
0	2839	564.346364217829	0
0	2858	566.573488568746	1
0	2859	566.709577115414	0
0	2914	581.182881352537	1
0	2915	581.255029297981	0
0	2919	581.420595383987	1
0	2920	581.456150151476	0
0	2929	583.348836888803	1
0	2931	583.435468874198	2
0	2932	583.513779369803	1
0	2936	583.599384088707	2
0	2938	583.694276535363	3
0	2939	583.714900223298	2
0	2942	583.916021076793	1
0	2946	584.014178351429	2
0	2947	584.117141930288	1
0	2950	584.318262783783	0
0	2979	592.189696591752	1
0	2981	592.310703427851	2
0	2982	592.364387799548	1
0	2985	592.565508653043	0
0	3040	606.249183072106	1
0	3041	606.421720924237	0
0	3055	608.356531899442	1
0	3056	608.397830202868	0
0	3065	608.64541919576	1
0	3066	608.807644896105	0
0	3070	608.836705412441	1
0	3071	609.0087657496	0
0	3080	609.633809132515	1
0	3081	609.759329554547	0
0	3085	609.760196219418	1
0	3086	609.960450408042	0
0	3100	611.574766255885	1
0	3101	611.758141316933	0
0	3125	614.049419520203	1
0	3126	614.088012601911	0
0	3135	616.429782381872	1
0	3136	616.565458441735	0
0	3211	632.771994091643	1
0	3212	632.902598106813	0
0	3216	632.908036376682	1
0	3217	633.103718960308	0
0	3236	637.225260227055	1
0	3237	637.2453988597	0
0	3261	641.717556222484	1
0	3262	641.882879703559	0
0	3266	642.057771029992	1
0	3267	642.084000557054	0
0	3271	642.24033499659	1
0	3272	642.285121410549	0
0	3306	646.261924584109	1
0	3307	646.33355952906	0
0	3323	649.63478056609	1
0	3324	649.648955671263	0
0	3352	658.643036583826	1
0	3353	658.749133892027	0
0	3367	661.651505930097	1
0	3368	661.840016094048	0
0	3372	662.013551455028	1
0	3373	662.041136947543	0
0	3397	665.73676583954	1
0	3399	665.833642820222	2
0	3400	665.916425193153	1
0	3403	666.117546046648	0
0	3412	666.728201139143	1
0	3413	666.761877408151	0
0	3467	679.91361497204	1
0	3468	680.043018002263	0
0	3472	680.132453077776	1
0	3476	680.30670101279	2
0	3477	680.376250431911	1
0	3479	680.577371285406	0
0	3498	684.323651438094	1
0	3499	684.455669975162	0
0	3563	698.272691656738	1
0	3564	698.376193939784	0
0	3603	704.032555008207	1
0	3605	704.047139304808	2
0	3606	704.126771125552	1
0	3609	704.327891979047	0
0	3613	704.519760600484	1
0	3614	704.529012832542	0
0	3618	704.575152016947	1
0	3619	704.730133686037	0
0	3634	705.555136644081	1
0	3635	705.753885037205	0
0	3654	707.062789780448	1
0	3655	707.120673873646	0
0	3664	707.634317460017	1
0	3665	707.732943300088	0
0	3684	713.294543735653	1
0	3685	713.399950145727	0
0	3694	713.639531319262	1
0	3695	713.806840959112	0
0	3714	714.961214025905	1
0	3715	715.060224455956	0
0	3734	723.205200090996	1
0	3735	723.29412717382	0
0	3774	730.02123620957	1
0	3777	730.20636425178	0
0	3830	737.787697141409	1
0	3832	737.833038020753	2
0	3833	737.942369329803	1
0	3837	738.103608472977	2
0	3838	738.143490183298	1
0	3841	738.344611036793	0
0	3925	757.761904737615	1
0	3928	758.044597864451	0
0	3936	758.692055968779	1
0	3937	758.791847791678	0
0	3961	765.537457150226	1
0	3962	765.737638130345	0
0	3986	768.900975691311	1
0	3987	768.927049923451	0
0	4016	773.821836441319	1
0	4018	773.898744113713	2
0	4019	773.956340859718	1
0	4022	774.157461713213	0
0	4026	774.281834946852	1
0	4028	774.328420217466	2
0	4029	774.358582566708	1
0	4032	774.559703420203	0
0	4041	776.242506355255	1
0	4042	776.335820500571	0
0	4066	780.194657726469	1
0	4067	780.322545003348	0
0	4087	783.437375376655	1
0	4088	783.485878186217	0
0	4137	795.063245942956	1
0	4138	795.129431540269	0
0	4202	807.962354816973	1
0	4203	808.144181447517	0
0	4217	808.727526136218	1
0	4218	808.811236821977	0
0	4222	808.970338019395	1
0	4223	809.012357675472	0
0	4248	814.833642701527	1
0	4249	814.908878718758	0
0	4253	814.942899523291	1
0	4254	815.109999572253	0
0	4258	815.117040584402	1
0	4259	815.311120425748	0
0	4288	821.90223800418	1
0	4289	821.923561432034	0
0	4308	824.887760552872	1
0	4309	825.057726625083	0
0	4318	826.076356931163	1
0	4319	826.252977473894	0
0	4348	834.789481793267	1
0	4349	834.826178034488	0
0	4353	834.929736595381	1
0	4354	835.027298887983	0
0	4389	844.986856488557	1
0	4390	845.140044062162	0
0	4404	848.183147359023	1
0	4405	848.332399493474	0
0	4414	851.896082761011	1
0	4415	852.002462757665	0
0	4429	854.44151520639	1
0	4430	854.614361911129	0
0	4499	867.247157900119	1
0	4500	867.331299383533	0
0	4504	867.486986197363	1
0	4505	867.532420237028	0
0	4550	877.389994546314	1
0	4551	877.460813447443	0
0	4565	881.130309621795	1
0	4566	881.324631485089	0
0	4570	881.412847919705	1
0	4571	881.525752338584	0
0	4595	884.0139133428	1
0	4596	884.038048224519	0
0	4600	884.088577506322	1
0	4601	884.239169078014	0
0	4605	884.301185952636	1
0	4606	884.440289931509	0
0	4625	890.500179092007	1
0	4626	890.577082538236	0
0	4640	893.259794274415	1
0	4642	893.285826493017	2
0	4643	893.358074730907	1
0	4646	893.559195584402	0
0	4655	895.847856989379	1
0	4656	896.014879725291	0
0	4660	896.081549158126	1
0	4661	896.216000578786	0
0	4670	898.288076931731	1
0	4671	898.48502003276	0
0	4726	908.371930206579	1
0	4727	908.373043352863	0
0	4731	908.403195080068	1
0	4732	908.574164206358	0
0	4746	910.812012263052	1
0	4747	910.823232307334	0
0	4771	914.434206731122	1
0	4772	914.579929602908	0
0	4781	916.173296661658	1
0	4783	916.285671289902	2
0	4784	916.374275329574	1
0	4787	916.575396183069	0
0	4806	918.846163260435	1
0	4807	918.920764746281	0
0	4892	937.541175297688	1
0	4893	937.636857481727	0
0	4902	938.706414150734	1
0	4903	938.73690366354	0
0	4912	939.344312521959	1
0	4913	939.41688956646	0
0	4932	944.315117399564	1
0	4933	944.412742513868	0
0	4952	948.356454379943	1
0	4953	948.445446320126	0
0	4998	956.763175523473	1
0	5000	956.775469413617	2
0	5002	956.81086172545	3
0	5003	956.905343179202	2
0	5006	957.106464032697	1
0	5009	957.307584886192	0
0	5018	960.98908144732	1
0	5019	961.189709223947	0
0	5063	971.593874030508	1
0	5064	971.652495412072	0
0	5073	973.042555270211	1
0	5074	973.081355346158	0
0	5078	973.107560780573	1
0	5079	973.282476199653	0
0	5083	973.370063712567	1
0	5084	973.483597053148	0
0	5128	985.08036907853	1
0	5129	985.159919585444	0
0	5133	985.323473342573	1
0	5136	985.493152015092	0
0	5144	986.381557678256	1
0	5145	986.475257729339	0
0	5154	987.263045196405	1
0	5155	987.311378836782	0
0	5159	987.476450973539	1
0	5160	987.512499690277	0
0	5164	987.676857246149	1
0	5165	987.713620543772	0
0	5199	996.342565491632	1
0	5200	996.496045279781	0
1	5	0.580400680316	0.201120853495
1	10	0.890986062048	0.201120853495
1	17	2.975296716137	0.201120853495
1	22	3.176417569632	0.286911453251
1	25	3.377538423127	0.373569851193
1	30	5.231304809223	0.201120853495
1	35	5.7020167962	0.201120853495
1	40	6.695535589521	0.201120853495
1	45	9.215593887825	0.201120853495
1	54	9.650259273835	0.201120853495
1	59	9.85138012733	0.346562336481
1	62	10.052500980825	0.477756740295
1	65	10.25362183432	0.526541501619
1	70	10.912638513272	0.201120853495
1	75	11.37648443896	0.201120853495
1	80	12.289432905971	0.201120853495
1	87	12.901772457741	0.201120853495
1	90	13.102893311236	0.305491516605
1	99	15.594359614583	0.201120853495
1	104	15.795480468078	0.343710117167
1	109	15.996601321573	0.483584521292
1	114	16.197722175068	0.414034848286
1	117	16.398843028563	0.528341232462
1	120	16.599963882058	0.461054831073
1	125	17.961338371624	0.201120853495
1	130	19.450203293777	0.201120853495
1	139	20.204187222216	0.201120853495
1	142	20.405308075711	0.358706521068
1	147	20.606428929206	0.53783655951
1	150	20.807549782701	0.300924769269
1	156	21.355573450862	0.201120853495
1	161	21.988880514962	0.201120853495
1	166	22.884234489589	0.201120853495
1	171	24.343443320062	0.201120853495
1	176	26.272636986619	0.201120853495
1	181	28.264189569393	0.201120853495
1	186	28.509593752281	0.201120853495
1	191	30.012963556003	0.201120853495
1	196	30.881400712832	0.201120853495
1	201	31.137455129976	0.201120853495
1	206	32.32041295238	0.201120853495
1	211	33.74915235006	0.201120853495
1	216	35.733792164149	0.201120853495
1	221	36.316087598619	0.201120853495
1	226	37.644499717869	0.201120853495
1	231	37.889680225254	0.201120853495
1	236	38.742699507465	0.201120853495
1	243	39.710945108869	0.201120853495
1	248	39.912065962364	0.20869897056
1	251	40.113186815859	0.257573234448
1	258	41.102216874435	0.201120853495
1	261	41.30333772793	0.309298023864
1	266	42.520752301093	0.201120853495
1	271	43.096225333468	0.201120853495
1	276	43.913128772484	0.201120853495
1	283	44.254476343374	0.201120853495
1	288	44.455597196869	0.323270316882
1	291	44.656718050364	0.205467138521
1	296	46.127179198017	0.201120853495
1	301	46.923566380673	0.201120853495
1	307	47.430911499236	0.201120853495
1	314	50.787862030773	0.201120853495
1	317	50.988982884268	0.391928821995
1	322	51.977150589828	0.201120853495
1	327	52.459473009818	0.201120853495
1	332	53.494524048991	0.201120853495
1	337	53.93702065327	0.201120853495
1	342	55.231024906572	0.201120853495
1	347	56.719321566465	0.201120853495
1	352	59.50479451893	0.201120853495
1	359	60.591808458114	0.201120853495
1	362	60.792929311609	0.353792290265
1	369	61.339618326835	0.201120853495
1	372	61.54073918033	0.400048755768
1	377	65.279119892966	0.201120853495
1	382	65.704340869643	0.201120853495
1	387	66.114197417269	0.201120853495
1	392	67.247320004792	0.201120853495
1	397	67.878419423618	0.201120853495
1	404	68.255465033882	0.201120853495
1	407	68.456585887377	0.278984901072
1	412	69.906886569606	0.201120853495
1	417	70.91009730521	0.201120853495
1	422	71.840361140794	0.201120853495
1	429	72.285140841077	0.201120853495
1	432	72.486261694572	0.283389605571
1	437	73.048603354811	0.201120853495
1	442	75.22789143338	0.201120853495
1	447	77.23030730733	0.201120853495
1	452	77.649178782395	0.201120853495
1	458	79.134907829943	0.201120853495
1	463	79.936032079275	0.201120853495
1	468	81.625843035983	0.201120853495
1	473	83.31695072449	0.201120853495
1	478	83.653689356151	0.201120853495
1	483	85.581529494613	0.201120853495
1	488	88.260157321165	0.201120853495
1	493	89.247107742282	0.201120853495
1	500	89.724097406287	0.201120853495
1	503	89.925218259782	0.240314837994
1	508	90.415363228349	0.201120853495
1	513	91.659646515326	0.201120853495
1	518	92.175687313912	0.201120853495
1	523	92.562420157494	0.201120853495
1	528	93.055063853992	0.201120853495
1	533	93.838932878656	0.201120853495
1	538	94.203066927853	0.201120853495
1	543	95.093958966869	0.201120853495
1	548	99.902660843154	0.201120853495
1	553	100.166166749108	0.201120853495
1	560	102.3910477975	0.201120853495
1	563	102.592168650995	0.390849992253
1	568	103.188627272187	0.201120853495
1	573	104.491689300925	0.201120853495
1	580	107.294322704518	0.201120853495
1	583	107.495443558013	0.349742381394
1	588	107.804051453229	0.201120853495
1	593	109.508718709935	0.201120853495
1	598	110.438661816294	0.201120853495
1	603	110.720691502768	0.201120853495
1	611	111.351137499622	0.201120853495
1	614	111.552258353117	0.323060343042
1	619	114.057426704949	0.201120853495
1	624	114.963143606789	0.201120853495
1	631	116.46551587528	0.201120853495
1	634	116.666636728775	0.202357528622
1	639	116.879157398628	0.201120853495
1	646	117.123372247094	0.201120853495
1	649	117.324493100589	0.368227681319
1	654	117.875115734887	0.201120853495
1	661	118.376094203368	0.201120853495
1	666	118.577215056863	0.350503093431
1	671	118.778335910358	0.300700728777
1	674	118.979456763853	0.205117064799
1	679	119.260952864473	0.201120853495
1	684	119.554588477789	0.201120853495
1	689	120.778304013194	0.201120853495
1	694	121.221648481764	0.201120853495
1	699	122.706094948548	0.201120853495
1	706	123.407309670478	0.201120853495
1	711	123.608430523973	0.264532141818
1	714	123.809551377468	0.300867529694
1	719	126.191251577825	0.201120853495
1	724	127.060488650526	0.201120853495
1	729	127.266013835821	0.201120853495
1	734	127.475867362348	0.201120853495
1	739	128.562065365599	0.201120853495
1	746	128.964349091662	0.201120853495
1	749	129.165469945157	0.211019806912
1	754	129.653810548448	0.201120853495
1	760	131.814037410982	0.201120853495
1	765	132.362779347774	0.201120853495
1	770	134.042200436823	0.201120853495
1	775	134.562885853229	0.201120853495
1	780	134.797468950687	0.201120853495
1	787	135.674994267099	0.201120853495
1	790	135.876115120594	0.29051342854
1	795	140.573587047481	0.201120853495
1	802	142.139418133068	0.201120853495
1	805	142.340538986563	0.257788495339
1	810	143.363263242333	0.201120853495
1	817	144.070582494629	0.201120853495
1	820	144.271703348124	0.280094486935
1	827	145.847732784843	0.201120853495
1	830	146.048853638338	0.347983667407
1	835	149.24642099731	0.201120853495
1	840	150.612657238516	0.201120853495
1	847	152.193493934238	0.201120853495
1	852	152.394614787733	0.372588892349
1	859	152.595735641228	0.376950166412
1	862	152.796856494723	0.303519974682
1	865	152.997977348218	0.413960033618
1	870	153.796380253592	0.201120853495
1	875	155.536396347587	0.201120853495
1	880	156.053898736914	0.201120853495
1	885	156.355874525197	0.201120853495
1	890	161.004884131604	0.201120853495
1	895	163.650108940048	0.201120853495
1	900	164.137909411268	0.201120853495
1	907	167.536963969543	0.201120853495
1	913	167.870196399191	0.450108378079
1	916	168.071317252686	0.441118691925
1	921	169.327347017101	0.201120853495
1	928	172.657796858659	0.201120853495
1	931	172.858917712154	0.278155013472
1	936	173.828610024866	0.201120853495
1	941	174.689424711564	0.201120853495
1	946	174.962041081789	0.201120853495
1	951	176.08299647413	0.201120853495
1	958	177.699076301614	0.201120853495
1	961	177.900197155109	0.371586169408
1	966	179.182447443392	0.201120853495
1	971	182.657886941873	0.201120853495
1	976	182.895026340738	0.201120853495
1	983	184.78831441495	0.201120853495
1	986	184.989435268445	0.301854675325
1	991	185.393136117698	0.201120853495
1	998	186.580749210186	0.201120853495
1	1001	186.781870063681	0.395891226041
1	1006	187.163622983466	0.201120853495
1	1011	188.325195268607	0.201120853495
1	1016	189.189424121927	0.201120853495
1	1021	190.004028107263	0.201120853495
1	1026	191.264337564077	0.201120853495
1	1031	191.662254013758	0.201120853495
1	1036	192.09661780165	0.201120853495
1	1041	193.635178067082	0.201120853495
1	1046	194.004626392345	0.201120853495
1	1053	194.508323309735	0.201120853495
1	1058	194.70944416323	0.332165168223
1	1062	195.042676592878	0.346692405459
1	1067	195.439715717602	0.201120853495
1	1072	196.099300588118	0.201120853495
1	1077	196.361133119802	0.201120853495
1	1082	197.213803584386	0.201120853495
1	1087	197.579261244609	0.201120853495
1	1092	198.288403030726	0.201120853495
1	1097	198.8060399395	0.201120853495
1	1102	199.845600285295	0.201120853495
1	1107	202.645181087933	0.201120853495
1	1114	203.137832327909	0.201120853495
1	1117	203.338953181404	0.202941059998
1	1122	204.969519056061	0.201120853495
1	1127	205.185739244807	0.201120853495
1	1132	205.803798772426	0.201120853495
1	1137	206.412864553173	0.201120853495
1	1142	206.915777062635	0.201120853495
1	1147	209.404759828072	0.201120853495
1	1154	209.727448269674	0.201120853495
1	1157	209.928569123169	0.287772703616
1	1162	212.745117795057	0.201120853495
1	1171	213.235549995171	0.201120853495
1	1174	213.436670848666	0.350408549491
1	1177	213.637791702161	0.46833247817
1	1182	214.115974751261	0.201120853495
1	1187	214.624389264778	0.201120853495
1	1192	215.634192558776	0.201120853495
1	1197	217.720718797569	0.201120853495
1	1202	219.779966282912	0.201120853495
1	1209	220.183536583571	0.201120853495
1	1213	220.516769013219	0.382048809305
1	1218	221.402885374927	0.201120853495
1	1223	222.060418861057	0.201120853495
1	1228	224.853798275783	0.201120853495
1	1235	225.877088581425	0.201120853495
1	1238	226.07820943492	0.211773766285
1	1243	226.741528692891	0.201120853495
1	1248	227.68648242349	0.201120853495
1	1255	228.542948796105	0.201120853495
1	1258	228.7440696496	0.336362213307
1	1265	230.02818940899	0.201120853495
1	1268	230.229310262485	0.269162638713
1	1273	230.832069796244	0.201120853495
1	1280	231.368407297499	0.201120853495
1	1285	231.569528150994	0.288793205779
1	1288	231.770649004489	0.328727749208
1	1293	232.097822414265	0.201120853495
1	1298	234.268901542992	0.201120853495
1	1303	235.042083518275	0.201120853495
1	1308	235.933941880879	0.201120853495
1	1313	238.553070002084	0.201120853495
1	1318	239.701434207231	0.201120853495
1	1325	241.336328185738	0.201120853495
1	1330	241.537449039233	0.296076252249
1	1333	241.738569892728	0.31376626005
1	1338	243.864682967494	0.201120853495
1	1343	244.190677745501	0.201120853495
1	1348	244.647149157575	0.201120853495
1	1353	245.169537529067	0.201120853495
1	1358	247.064058721657	0.201120853495
1	1364	247.412652606204	0.201120853495
1	1369	248.635669724066	0.201120853495
1	1376	250.032708133573	0.201120853495
1	1381	250.233828987068	0.400950362923
1	1384	250.434949840563	0.309846198044
1	1389	251.256051454658	0.201120853495
1	1396	251.965770824011	0.201120853495
1	1399	252.166891677506	0.380644845251
1	1404	254.562285841344	0.201120853495
1	1409	255.096899538139	0.201120853495
1	1416	255.674293367298	0.201120853495
1	1421	255.875414220793	0.351877426601
1	1424	256.076535074288	0.220691375632
1	1429	260.918578468567	0.201120853495
1	1436	261.618119929464	0.201120853495
1	1439	261.819240782959	0.354209888105
1	1446	264.991087159185	0.201120853495
1	1449	265.19220801268	0.249393657989
1	1454	265.482832624861	0.201120853495
1	1459	265.773156103969	0.201120853495
1	1464	266.489170824999	0.201120853495
1	1469	266.888691819511	0.201120853495
1	1474	267.160521495508	0.201120853495
1	1479	268.526555374986	0.201120853495
1	1484	269.411818972538	0.201120853495
1	1491	269.625457224215	0.201120853495
1	1494	269.82657807771	0.358708492614
1	1499	271.577581640839	0.201120853495
1	1504	273.296677340371	0.201120853495
1	1509	273.946838410835	0.201120853495
1	1515	275.06961027951	0.201120853495
1	1520	279.701015715867	0.201120853495
1	1525	280.213653474981	0.201120853495
1	1530	280.64053566505	0.201120853495
1	1535	282.543948729523	0.201120853495
1	1540	283.313531329402	0.201120853495
1	1545	284.05292995493	0.201120853495
1	1550	284.302407131264	0.201120853495
1	1555	285.12819477146	0.201120853495
1	1560	286.163858448579	0.201120853495
1	1565	287.000863600553	0.201120853495
1	1570	288.028596087543	0.201120853495
1	1575	288.370352016719	0.201120853495
1	1580	289.965293037554	0.201120853495
1	1585	290.350694430242	0.201120853495
1	1590	291.19435646771	0.201120853495
1	1595	292.378169491974	0.201120853495
1	1600	292.793706235707	0.201120853495
1	1605	293.813902966876	0.201120853495
1	1610	298.140757080887	0.201120853495
1	1615	298.979600986567	0.201120853495
1	1620	299.870735478507	0.201120853495
1	1625	300.819500736141	0.201120853495
1	1630	302.71809990785	0.201120853495
1	1635	303.087262292891	0.201120853495
1	1640	303.467524487285	0.201120853495
1	1645	303.948589920383	0.201120853495
1	1650	305.622620075326	0.201120853495
1	1655	305.955682477911	0.201120853495
1	1660	306.290228866271	0.201120853495
1	1666	306.741340975727	0.201120853495
1	1671	307.82392751851	0.201120853495
1	1678	308.196332379788	0.201120853495
1	1681	308.397453233283	0.280099961354
1	1686	308.813011652445	0.201120853495
1	1691	312.733006665696	0.201120853495
1	1696	313.503046251609	0.201120853495
1	1703	315.117578142465	0.201120853495
1	1706	315.31869899596	0.25274243332
1	1711	317.912328578078	0.201120853495
1	1716	323.414268848483	0.201120853495
1	1721	324.740053323668	0.201120853495
1	1726	326.568898220293	0.201120853495
1	1731	326.94664735413	0.201120853495
1	1736	327.234794181951	0.201120853495
1	1741	333.777163167232	0.201120853495
1	1746	334.432621706271	0.201120853495
1	1751	335.159000189793	0.201120853495
1	1756	336.141952051573	0.201120853495
1	1761	336.565599981274	0.201120853495
1	1766	336.943701835677	0.201120853495
1	1771	338.609927329476	0.201120853495
1	1776	338.888089625876	0.201120853495
1	1783	339.225708711329	0.201120853495
1	1788	339.426829564824	0.394918387647
1	1791	339.627950418319	0.371666674148
1	1796	340.484081314619	0.201120853495
1	1801	340.861143648194	0.201120853495
1	1806	344.298834092341	0.201120853495
1	1811	344.810369698596	0.201120853495
1	1817	345.203725793428	0.201120853495
1	1822	346.259064473596	0.201120853495
1	1829	347.986116405085	0.201120853495
1	1832	348.18723725858	0.37144099071
1	1837	350.208642729988	0.201120853495
1	1842	350.416702816961	0.201120853495
1	1847	350.888796690967	0.201120853495
1	1852	351.090719094368	0.201120853495
1	1857	351.405655074024	0.201120853495
1	1862	352.535723732621	0.201120853495
1	1867	353.313208595521	0.201120853495
1	1874	354.071112501839	0.201120853495
1	1879	354.272233355334	0.337665339912
1	1882	354.473354208829	0.346152923604
1	1887	358.406155959414	0.201120853495
1	1892	359.019686931572	0.201120853495
1	1897	359.244533085831	0.201120853495
1	1902	360.790937823768	0.201120853495
1	1909	361.335609477338	0.201120853495
1	1914	361.536730330833	0.364259827669
1	1919	361.737851184328	0.286792061391
1	1922	361.938972037823	0.37333383977
1	1927	364.252200110341	0.201120853495
1	1932	364.596991697257	0.201120853495
1	1937	367.171053861133	0.201120853495
1	1942	369.087751388669	0.201120853495
1	1947	369.38885816005	0.201120853495
1	1952	370.539236895131	0.201120853495
1	1959	371.18804794739	0.201120853495
1	1964	371.389168800885	0.390102875596
1	1968	371.722401230533	0.513402481048
1	1973	372.905030033855	0.201120853495
1	1978	373.414286666698	0.201120853495
1	1983	375.100877447717	0.201120853495
1	1988	376.941799746142	0.201120853495
1	1993	380.131154709554	0.201120853495
1	1998	381.034219390445	0.201120853495
1	2003	383.923540803204	0.201120853495
1	2008	384.807725152542	0.201120853495
1	2013	386.188930808874	0.201120853495
1	2018	390.630033838486	0.201120853495
1	2023	392.791608775873	0.201120853495
1	2028	393.313683315355	0.201120853495
1	2033	393.64618527208	0.201120853495
1	2038	393.998962470303	0.201120853495
1	2045	398.857746343097	0.201120853495
1	2048	399.058867196592	0.331526354848
1	2053	399.842769111383	0.201120853495
1	2058	400.725706326805	0.201120853495
1	2063	400.9849090401	0.201120853495
1	2068	403.128332449168	0.201120853495
1	2073	404.756794554851	0.201120853495
1	2082	407.272647139189	0.201120853495
1	2085	407.473767992684	0.354815533859
1	2088	407.674888846179	0.40654388726
1	2093	408.455056778983	0.201120853495
1	2098	408.86977095166	0.201120853495
1	2103	412.94859929645	0.201120853495
1	2108	413.953539156633	0.201120853495
1	2113	414.404019627711	0.201120853495
1	2119	415.641356420177	0.201120853495
1	2126	416.579989013721	0.201120853495
1	2129	416.781109867216	0.385643180238
1	2134	418.041046723482	0.201120853495
1	2139	419.16847850211	0.201120853495
1	2144	419.88162979521	0.201120853495
1	2149	420.776534850377	0.201120853495
1	2154	423.524448494122	0.201120853495
1	2159	426.021835801315	0.201120853495
1	2164	426.258720199331	0.201120853495
1	2169	427.581721177784	0.201120853495
1	2174	429.947179229053	0.201120853495
1	2179	430.493926404848	0.201120853495
1	2184	433.487686801118	0.201120853495
1	2189	433.747549380085	0.201120853495
1	2196	436.022340119577	0.201120853495
1	2199	436.223460973072	0.253831969371
1	2206	436.819564572089	0.201120853495
1	2209	437.020685425584	0.332533920255
1	2214	438.204113692454	0.201120853495
1	2221	438.734400692421	0.201120853495
1	2224	438.935521545916	0.304326884947
1	2229	440.405900088324	0.201120853495
1	2234	440.986067219574	0.201120853495
1	2241	441.208542040318	0.201120853495
1	2246	441.409662893813	0.237903322251
1	2251	441.610783747308	0.247835489066
1	2254	441.811904600803	0.338118457091
1	2259	444.024135021094	0.201120853495
1	2264	444.930773910928	0.201120853495
1	2270	448.225957037608	0.201120853495
1	2275	448.916204663669	0.201120853495
1	2280	450.548510998689	0.201120853495
1	2287	451.639342120689	0.201120853495
1	2292	451.840462974184	0.394685375865
1	2295	452.041583827679	0.321908302945
1	2300	453.082767986526	0.201120853495
1	2305	453.32702854141	0.201120853495
1	2312	454.850930962796	0.201120853495
1	2315	455.052051816291	0.249397923078
1	2320	455.895308885814	0.201120853495
1	2327	456.505044994306	0.201120853495
1	2332	456.706165847801	0.250043936323
1	2335	456.907286701296	0.357831485607
1	2340	457.257076502286	0.201120853495
1	2345	458.358464422613	0.201120853495
1	2350	459.522694314272	0.201120853495
1	2355	461.147060179004	0.201120853495
1	2360	464.097673716696	0.201120853495
1	2365	464.511943638783	0.201120853495
1	2372	466.694460203022	0.201120853495
1	2375	466.895581056517	0.301052829417
1	2380	467.921871192099	0.201120853495
1	2385	469.684248054815	0.201120853495
1	2390	469.901514091182	0.201120853495
1	2395	470.621695210288	0.201120853495
1	2400	471.966154641246	0.201120853495
1	2405	472.640971973605	0.201120853495
1	2410	475.257369146552	0.201120853495
1	2417	476.164807293734	0.201120853495
1	2421	476.498039723382	0.387064668425
1	2426	476.938715207511	0.201120853495
1	2431	479.973523162048	0.201120853495
1	2438	482.264025524799	0.201120853495
1	2441	482.465146378294	0.379695084976
1	2446	483.953931199497	0.201120853495
1	2451	484.795618269428	0.201120853495
1	2456	487.436648410918	0.201120853495
1	2461	488.18817920365	0.201120853495
1	2466	488.809003028989	0.201120853495
1	2471	490.878931302866	0.201120853495
1	2476	491.81394794354	0.201120853495
1	2483	492.118671529829	0.201120853495
1	2486	492.319792383324	0.382967174824
1	2491	493.714442692292	0.201120853495
1	2496	494.391621233297	0.201120853495
1	2501	495.416733427584	0.201120853495
1	2506	496.782573286036	0.201120853495
1	2511	498.216576136757	0.201120853495
1	2516	500.76137976901	0.201120853495
1	2523	501.002203393192	0.201120853495
1	2526	501.203324246687	0.273837276619
1	2531	502.76961110469	0.201120853495
1	2536	503.536910974424	0.201120853495
1	2541	504.633863455926	0.201120853495
1	2548	504.957850018271	0.201120853495
1	2551	505.158970871766	0.253758746442
1	2556	506.59904068472	0.201120853495
1	2561	507.297261373506	0.201120853495
1	2566	507.649909333306	0.201120853495
1	2572	507.983141762954	0.240265166272
1	2577	509.160584845281	0.201120853495
1	2582	509.816492307132	0.201120853495
1	2587	511.37291022673	0.201120853495
1	2592	511.979459856162	0.201120853495
1	2597	512.403138682032	0.201120853495
1	2602	514.738396158449	0.201120853495
1	2607	515.521069991114	0.201120853495
1	2612	516.319658267159	0.201120853495
1	2617	519.191761694568	0.201120853495
1	2622	519.997762153712	0.201120853495
1	2627	521.559662597973	0.201120853495
1	2632	521.936388320807	0.201120853495
1	2637	522.952339225625	0.201120853495
1	2644	525.173689816731	0.201120853495
1	2647	525.374810670226	0.297964173572
1	2652	526.348812263606	0.201120853495
1	2657	526.652609155909	0.201120853495
1	2662	527.964711475126	0.201120853495
1	2667	528.783576354737	0.201120853495
1	2672	534.414339171541	0.201120853495
1	2677	534.724354336212	0.201120853495
1	2682	535.277448531964	0.201120853495
1	2687	535.94201983699	0.201120853495
1	2692	537.344278676489	0.201120853495
1	2701	538.720189840799	0.201120853495
1	2704	538.921310694294	0.372532400245
1	2707	539.122431547789	0.523835206078
1	2712	539.464943293933	0.201120853495
1	2717	542.62202776	0.201120853495
1	2723	542.955260189648	0.231662673203
1	2728	544.320619232888	0.201120853495
1	2733	544.590898979343	0.201120853495
1	2738	547.279304904658	0.201120853495
1	2743	548.214254545638	0.201120853495
1	2750	549.496083598492	0.201120853495
1	2753	549.697204451987	0.31554373443
1	2758	550.586218839533	0.201120853495
1	2763	551.331524756958	0.201120853495
1	2768	552.646887811602	0.201120853495
1	2773	554.358355744409	0.201120853495
1	2780	556.929332961382	0.201120853495
1	2785	557.130453814877	0.345150953829
1	2788	557.331574668372	0.237093648953
1	2793	558.771181637252	0.201120853495
1	2798	560.063020475212	0.201120853495
1	2803	560.609278073165	0.201120853495
1	2808	562.221255420028	0.201120853495
1	2815	562.919993084016	0.201120853495
1	2818	563.121113937511	0.343285603624
1	2825	563.508914332924	0.201120853495
1	2830	563.710035186419	0.400100644736
1	2833	563.911156039914	0.384786316622
1	2840	564.346364217829	0.201120853495
1	2843	564.547485071324	0.341232416186
1	2848	565.145092659544	0.201120853495
1	2853	565.633951030547	0.201120853495
1	2860	566.709577115414	0.201120853495
1	2863	566.910697968909	0.337209400163
1	2868	568.55155523156	0.201120853495
1	2874	569.606177954423	0.201120853495
1	2879	569.959137215351	0.201120853495
1	2884	571.234188887862	0.201120853495
1	2889	573.967342870548	0.201120853495
1	2894	575.110414033995	0.201120853495
1	2899	576.101453932091	0.201120853495
1	2904	577.594534524326	0.201120853495
1	2909	578.41095571969	0.201120853495
1	2916	581.255029297981	0.201120853495
1	2921	581.456150151476	0.273268798939
1	2924	581.657271004971	0.236675620984
1	2933	583.513779369803	0.201120853495
1	2940	583.714900223298	0.366063334495
1	2943	583.916021076793	0.480552202595
1	2948	584.117141930288	0.517757841581
1	2951	584.318262783783	0.62398624842
1	2954	584.519383637278	0.505205285849
1	2959	585.190204268438	0.201120853495
1	2964	585.919113584543	0.201120853495
1	2969	586.601592807378	0.201120853495
1	2974	590.626790884528	0.201120853495
1	2983	592.364387799548	0.201120853495
1	2986	592.565508653043	0.375812061291
1	2989	592.766629506538	0.455926078687
1	2994	597.873713312808	0.201120853495
1	2999	598.687888022838	0.201120853495
1	3004	599.272630242366	0.201120853495
1	3009	599.605920718309	0.201120853495
1	3014	601.241901481228	0.201120853495
1	3019	602.268883990878	0.201120853495
1	3025	602.707439607798	0.201120853495
1	3030	603.742675757543	0.201120853495
1	3035	604.377982523072	0.201120853495
1	3042	606.421720924237	0.201120853495
1	3045	606.622841777732	0.373658705626
1	3050	607.975430035263	0.201120853495
1	3057	608.397830202868	0.201120853495
1	3060	608.598951056363	0.242419156921
1	3067	608.807644896105	0.201120853495
1	3072	609.0087657496	0.36334655384
1	3075	609.209886603095	0.373181190654
1	3082	609.759329554547	0.201120853495
1	3087	609.960450408042	0.326641275527
1	3090	610.161571261537	0.401375042119
1	3095	610.793829134876	0.201120853495
1	3102	611.758141316933	0.201120853495
1	3105	611.959262170428	0.384495914543
1	3110	612.238106914469	0.201120853495
1	3115	613.343756277036	0.201120853495
1	3120	613.549489902786	0.201120853495
1	3127	614.088012601911	0.201120853495
1	3130	614.289133455406	0.239713935203
1	3137	616.565458441735	0.201120853495
1	3140	616.76657929523	0.336796913358
1	3145	618.615286990754	0.201120853495
1	3150	618.845518974082	0.201120853495
1	3155	622.334790793894	0.201120853495
1	3160	622.652228782471	0.201120853495
1	3165	623.976960824762	0.201120853495
1	3170	625.259673046526	0.201120853495
1	3176	626.384312102397	0.201120853495
1	3181	627.312088448295	0.201120853495
1	3186	629.604892169611	0.201120853495
1	3191	629.998211331437	0.201120853495
1	3196	630.932830798824	0.201120853495
1	3201	631.832346733649	0.201120853495
1	3206	632.407520153186	0.201120853495
1	3213	632.902598106813	0.201120853495
1	3218	633.103718960308	0.331724868665
1	3221	633.304839813803	0.396803437121
1	3226	634.944570107144	0.201120853495
1	3231	635.35704276967	0.201120853495
1	3238	637.2453988597	0.201120853495
1	3241	637.446519713195	0.22125948614
1	3246	638.593322952002	0.201120853495
1	3251	638.811667896231	0.201120853495
1	3256	641.535778607128	0.201120853495
1	3263	641.882879703559	0.201120853495
1	3268	642.084000557054	0.36644433457
1	3273	642.285121410549	0.227350380557
1	3276	642.486242264044	0.245907267454
1	3281	642.841347816972	0.201120853495
1	3286	643.378047436041	0.201120853495
1	3291	644.279880485982	0.201120853495
1	3296	644.658989521521	0.201120853495
1	3301	645.69626148517	0.201120853495
1	3308	646.33355952906	0.201120853495
1	3311	646.534680382555	0.272755798446
1	3316	648.173939556232	0.201120853495
1	3321	649.51684409511	0.201120853495
1	3327	649.850076524758	0.215295958668
1	3332	651.604105436016	0.201120853495
1	3337	654.004887303682	0.201120853495
1	3342	656.959661820002	0.201120853495
1	3347	657.507153144585	0.201120853495
1	3354	658.749133892027	0.201120853495
1	3357	658.950254745522	0.307218161696
1	3362	660.238535895919	0.201120853495
1	3369	661.840016094048	0.201120853495
1	3374	662.041136947543	0.389631017446
1	3377	662.242257801038	0.22870634601
1	3382	664.657710010771	0.201120853495
1	3387	665.03160009564	0.201120853495
1	3392	665.675913869175	0.201120853495
1	3401	665.916425193153	0.201120853495
1	3404	666.117546046648	0.380780207108
1	3407	666.318666900143	0.485024079921
1	3414	666.761877408151	0.201120853495
1	3417	666.962998261646	0.234797122503
1	3422	670.185053204651	0.201120853495
1	3427	671.804087427624	0.201120853495
1	3432	672.638041226461	0.201120853495
1	3437	673.481274175589	0.201120853495
1	3442	675.337597835024	0.201120853495
1	3447	676.468515388624	0.201120853495
1	3452	677.062212572832	0.201120853495
1	3457	677.642613434294	0.201120853495
1	3462	678.504441049535	0.201120853495
1	3469	680.043018002263	0.201120853495
1	3474	680.244138855758	0.330523883718
1	3480	680.577371285406	0.44491820763
1	3483	680.778492138901	0.471791126111
1	3488	683.039714904429	0.201120853495
1	3493	683.705231400477	0.201120853495
1	3500	684.455669975162	0.201120853495
1	3503	684.656790828657	0.333139390563
1	3508	685.837702702964	0.201120853495
1	3513	686.450010969532	0.201120853495
1	3518	687.449947623825	0.201120853495
1	3523	688.198395904484	0.201120853495
1	3528	688.619348066428	0.201120853495
1	3533	689.173149721324	0.201120853495
1	3538	689.853174445525	0.201120853495
1	3543	690.256952772227	0.201120853495
1	3548	691.299355257032	0.201120853495
1	3553	691.570400349295	0.201120853495
1	3558	695.048076339895	0.201120853495
1	3565	698.376193939784	0.201120853495
1	3568	698.577314793279	0.304623136541
1	3573	699.083805495537	0.201120853495
1	3578	699.717360772379	0.201120853495
1	3583	700.085567526605	0.201120853495
1	3588	700.510455468875	0.201120853495
1	3593	701.736418598276	0.201120853495
1	3598	702.997140566284	0.201120853495
1	3607	704.126771125552	0.201120853495
1	3610	704.327891979047	0.29533697084
1	3615	704.529012832542	0.481873527734
1	3620	704.730133686037	0.210373085553
1	3623	704.931254539532	0.356102522585
1	3629	705.343685698273	0.201120853495
1	3636	705.753885037205	0.201120853495
1	3639	705.9550058907	0.399869246619
1	3644	706.552771792899	0.201120853495
1	3649	706.79473423733	0.201120853495
1	3656	707.120673873646	0.201120853495
1	3659	707.321794727141	0.259004946693
1	3666	707.732943300088	0.201120853495
1	3669	707.934064153583	0.299746693566
1	3674	709.485334795232	0.201120853495
1	3679	710.406222439014	0.201120853495
1	3686	713.399950145727	0.201120853495
1	3689	713.601070999222	0.306527263569
1	3696	713.806840959112	0.201120853495
1	3699	714.007961812607	0.368430493345
1	3704	714.23506581616	0.201120853495
1	3709	714.601190254636	0.201120853495
1	3716	715.060224455956	0.201120853495
1	3719	715.261345309451	0.300131283546
1	3724	716.594732267499	0.201120853495
1	3729	722.236387011659	0.201120853495
1	3736	723.29412717382	0.201120853495
1	3739	723.495248027315	0.290047936319
1	3744	724.144256689748	0.201120853495
1	3749	724.517644058372	0.201120853495
1	3754	724.845122905352	0.201120853495
1	3759	726.338432317642	0.201120853495
1	3764	727.688773061508	0.201120853495
1	3769	729.509735316092	0.201120853495
1	3776	730.074252675627	0.201120853495
1	3780	730.407485105275	0.386248895705
1	3785	731.727351922489	0.201120853495
1	3790	732.165607813591	0.201120853495
1	3795	733.494461366622	0.201120853495
1	3800	734.611136564902	0.201120853495
1	3805	734.865640849261	0.201120853495
1	3810	735.180009751286	0.201120853495
1	3815	736.003926061237	0.201120853495
1	3820	736.355443632099	0.201120853495
1	3825	737.669700828986	0.201120853495
1	3834	737.942369329803	0.201120853495
1	3839	738.143490183298	0.355793041889
1	3842	738.344611036793	0.51157301604
1	3845	738.545731890288	0.442123417311
1	3850	738.992427381291	0.201120853495
1	3855	739.318184501305	0.201120853495
1	3860	740.781753820158	0.201120853495
1	3865	744.865300637187	0.201120853495
1	3870	746.3319051423	0.201120853495
1	3875	747.618862825643	0.201120853495
1	3880	748.263103482886	0.201120853495
1	3885	750.290446499273	0.201120853495
1	3890	752.122670593081	0.201120853495
1	3895	753.306407521695	0.201120853495
1	3900	754.082618507965	0.201120853495
1	3905	754.591737406664	0.201120853495
1	3910	755.261533919269	0.201120853495
1	3915	755.839620413727	0.201120853495
1	3920	757.259900200005	0.201120853495
1	3927	757.912486288298	0.201120853495
1	3931	758.245718717946	0.483813980331
1	3938	758.791847791678	0.201120853495
1	3941	758.992968645173	0.300912676394
1	3946	761.427565247496	0.201120853495
1	3951	762.317636024074	0.201120853495
1	3956	762.644818117602	0.201120853495
1	3963	765.737638130345	0.201120853495
1	3966	765.93875898384	0.401301833614
1	3971	766.285524000664	0.201120853495
1	3976	766.568252696239	0.201120853495
1	3981	767.258009611375	0.201120853495
1	3988	768.927049923451	0.201120853495
1	3991	769.128170776946	0.227195085635
1	3996	769.50832875453	0.201120853495
1	4001	770.119669960564	0.201120853495
1	4006	770.514322995205	0.201120853495
1	4011	772.073391461568	0.201120853495
1	4020	773.956340859718	0.201120853495
1	4023	774.157461713213	0.335625271894
1	4030	774.358582566708	0.459838452995
1	4033	774.559703420203	0.277868473351
1	4036	774.760824273698	0.432404056232
1	4043	776.335820500571	0.201120853495
1	4046	776.536941354066	0.294434998811
1	4051	777.235377414972	0.201120853495
1	4056	777.495916773246	0.201120853495
1	4061	778.261230788887	0.201120853495
1	4068	780.322545003348	0.201120853495
1	4071	780.523665856843	0.329008130374
1	4076	781.185113264967	0.201120853495
1	4082	782.368299590898	0.201120853495
1	4089	783.485878186217	0.201120853495
1	4092	783.686999039712	0.249623663057
1	4097	784.646875242547	0.201120853495
1	4102	785.40739237775	0.201120853495
1	4107	790.255513640768	0.201120853495
1	4112	790.514189096319	0.201120853495
1	4117	791.366186517404	0.201120853495
1	4122	793.623351401391	0.201120853495
1	4127	794.264869895113	0.201120853495
1	4132	794.640143336881	0.201120853495
1	4139	795.129431540269	0.201120853495
1	4142	795.330552393764	0.267306450808
1	4147	796.23206096777	0.201120853495
1	4152	797.943864630511	0.201120853495
1	4157	799.010181047063	0.201120853495
1	4162	799.961999998957	0.201120853495
1	4167	800.750108256768	0.201120853495
1	4172	801.956920948217	0.201120853495
1	4177	802.424057768526	0.201120853495
1	4182	802.677876771971	0.201120853495
1	4187	804.245297429101	0.201120853495
1	4192	806.242562242507	0.201120853495
1	4197	806.699317879763	0.201120853495
1	4204	808.144181447517	0.201120853495
1	4207	808.345302301012	0.382947484039
1	4212	808.57960463967	0.201120853495
1	4219	808.811236821977	0.201120853495
1	4224	809.012357675472	0.284831539254
1	4227	809.213478528967	0.243140509572
1	4233	811.905938442852	0.201120853495
1	4238	812.670606118544	0.201120853495
1	4243	813.221718850649	0.201120853495
1	4250	814.908878718758	0.201120853495
1	4255	815.109999572253	0.276356870726
1	4260	815.311120425748	0.368220902457
1	4263	815.512241279243	0.395200694841
1	4268	816.141629917724	0.201120853495
1	4273	819.621847947482	0.201120853495
1	4278	820.389879753501	0.201120853495
1	4283	820.744197429476	0.201120853495
1	4290	821.923561432034	0.201120853495
1	4293	822.124682285529	0.222444281349
1	4298	822.375497238718	0.201120853495
1	4303	823.801471033386	0.201120853495
1	4310	825.057726625083	0.201120853495
1	4313	825.258847478578	0.371086925706
1	4320	826.252977473894	0.201120853495
1	4323	826.454098327389	0.377741396226
1	4328	828.72676749962	0.201120853495
1	4333	829.2002448974	0.201120853495
1	4338	830.222021483944	0.201120853495
1	4343	833.066341683305	0.201120853495
1	4350	834.826178034488	0.201120853495
1	4355	835.027298887983	0.237817094716
1	4358	835.228419741478	0.298683146097
1	4363	836.064185271475	0.201120853495
1	4368	837.344994649324	0.201120853495
1	4373	840.400042536142	0.201120853495
1	4378	841.058114762418	0.201120853495
1	4384	843.691318426084	0.201120853495
1	4391	845.140044062162	0.201120853495
1	4394	845.341164915657	0.3543084271
1	4399	846.455791490725	0.201120853495
1	4406	848.332399493474	0.201120853495
1	4409	848.533520346969	0.350372987946
1	4416	852.002462757665	0.201120853495
1	4419	852.20358361116	0.307500850149
1	4424	853.447818848441	0.201120853495
1	4431	854.614361911129	0.201120853495
1	4434	854.815482764624	0.373967558234
1	4439	857.238725220438	0.201120853495
1	4444	857.555258186667	0.201120853495
1	4449	857.953748064405	0.201120853495
1	4454	859.558707117195	0.201120853495
1	4459	860.552866368653	0.201120853495
1	4464	860.896190700067	0.201120853495
1	4469	862.359417009756	0.201120853495
1	4474	864.041488919495	0.201120853495
1	4479	864.60547985432	0.201120853495
1	4484	864.898440925572	0.201120853495
1	4489	865.231149236421	0.201120853495
1	4494	866.623249627253	0.201120853495
1	4501	867.331299383533	0.201120853495
1	4506	867.532420237028	0.285262336909
1	4509	867.733541090523	0.24655489316
1	4514	868.476892868404	0.201120853495
1	4519	869.036547282176	0.201120853495
1	4524	871.362302252521	0.201120853495
1	4529	871.77238421347	0.201120853495
1	4535	872.207752652958	0.201120853495
1	4540	873.378540411774	0.201120853495
1	4545	874.691898425326	0.201120853495
1	4552	877.460813447443	0.201120853495
1	4555	877.661934300938	0.271939754624
1	4560	879.46993725976	0.201120853495
1	4567	881.324631485089	0.201120853495
1	4572	881.525752338584	0.395442716789
1	4575	881.726873192079	0.314025272374
1	4580	882.108319852388	0.201120853495
1	4585	882.336137386537	0.201120853495
1	4590	882.82336806121	0.201120853495
1	4597	884.038048224519	0.201120853495
1	4602	884.239169078014	0.225255735214
1	4607	884.440289931509	0.351712425187
1	4610	884.641410785004	0.340224832368
1	4615	885.329275772198	0.201120853495
1	4620	885.926136543189	0.201120853495
1	4627	890.577082538236	0.201120853495
1	4630	890.778203391731	0.278024299724
1	4635	891.155007752879	0.201120853495
1	4644	893.358074730907	0.201120853495
1	4647	893.559195584402	0.299401309987
1	4650	893.760316437897	0.47448994488
1	4657	896.014879725291	0.201120853495
1	4662	896.216000578786	0.368143589407
1	4665	896.417121432281	0.335572274155
1	4672	898.48502003276	0.201120853495
1	4675	898.686140886255	0.398063954524
1	4680	899.18464911382	0.201120853495
1	4686	901.112370846417	0.201120853495
1	4691	901.686263482168	0.201120853495
1	4696	902.584784644423	0.201120853495
1	4701	903.559788588716	0.201120853495
1	4706	905.87342773734	0.201120853495
1	4711	906.567428531462	0.201120853495
1	4716	907.289811652615	0.201120853495
1	4721	907.843995057184	0.201120853495
1	4728	908.373043352863	0.201120853495
1	4733	908.574164206358	0.202233999779
1	4736	908.775285059853	0.372089979785
1	4741	909.564695884978	0.201120853495
1	4748	910.823232307334	0.201120853495
1	4751	911.024353160829	0.212340897777
1	4756	912.311875194057	0.201120853495
1	4761	912.747526328157	0.201120853495
1	4766	914.221216020634	0.201120853495
1	4773	914.579929602908	0.201120853495
1	4776	914.781050456403	0.346843725281
1	4785	916.374275329574	0.201120853495
1	4788	916.575396183069	0.402099521411
1	4791	916.776517036564	0.490845746662
1	4796	917.174804907557	0.201120853495
1	4801	918.34017458638	0.201120853495
1	4808	918.920764746281	0.201120853495
1	4811	919.121885599776	0.275722339341
1	4816	919.558478601153	0.201120853495
1	4821	920.032998358888	0.201120853495
1	4826	921.225516343943	0.201120853495
1	4831	923.930845924938	0.201120853495
1	4837	924.373208213227	0.201120853495
1	4842	926.24211977741	0.201120853495
1	4847	926.727701533624	0.201120853495
1	4852	927.670268182933	0.201120853495
1	4857	928.666971550852	0.201120853495
1	4862	931.984746827602	0.201120853495
1	4867	934.102533361904	0.201120853495
1	4872	935.020326634158	0.201120853495
1	4877	935.815427332601	0.201120853495
1	4882	936.603207590528	0.201120853495
1	4887	937.241578086884	0.201120853495
1	4894	937.636857481727	0.201120853495
1	4897	937.837978335222	0.296803037534
1	4904	938.73690366354	0.201120853495
1	4907	938.938024517035	0.231610366301
1	4914	939.41688956646	0.201120853495
1	4917	939.618010419955	0.273697897996
1	4922	942.400040198526	0.201120853495
1	4927	943.104147081021	0.201120853495
1	4934	944.412742513868	0.201120853495
1	4937	944.613863367363	0.298745967799
1	4942	945.804289069594	0.201120853495
1	4947	947.063549897664	0.201120853495
1	4954	948.445446320126	0.201120853495
1	4957	948.646567173621	0.290112793678
1	4962	949.118575579606	0.201120853495
1	4967	951.0669934774	0.201120853495
1	4972	952.296353260777	0.201120853495
1	4977	953.513427954694	0.201120853495
1	4982	953.74149653326	0.201120853495
1	4988	955.109193557994	0.201120853495
1	4993	955.420545975497	0.201120853495
1	5004	956.905343179202	0.201120853495
1	5007	957.106464032697	0.343288509224
1	5010	957.307584886192	0.532115472575
1	5013	957.508705739687	0.697844014237
1	5020	961.189709223947	0.201120853495
1	5023	961.390830077442	0.401748630122
1	5028	964.451828416288	0.201120853495
1	5033	965.838660636949	0.201120853495
1	5038	967.438046783042	0.201120853495
1	5043	968.296708832108	0.201120853495
1	5048	969.23191284406	0.201120853495
1	5053	970.107627200594	0.201120853495
1	5058	970.751414227948	0.201120853495
1	5065	971.652495412072	0.201120853495
1	5068	971.853616265567	0.259742235059
1	5075	973.081355346158	0.201120853495
1	5080	973.282476199653	0.239920929442
1	5085	973.483597053148	0.376036272575
1	5088	973.684717906643	0.314654194076
1	5093	974.792536921285	0.201120853495
1	5098	975.080764018096	0.201120853495
1	5103	975.90076807978	0.201120853495
1	5108	980.698819529437	0.201120853495
1	5113	981.631802718151	0.201120853495
1	5118	982.613570418354	0.201120853495
1	5123	984.678307086708	0.201120853495
1	5130	985.159919585444	0.201120853495
1	5135	985.361040438939	0.280671360409
1	5139	985.694272868587	0.370799526014
1	5146	986.475257729339	0.201120853495
1	5149	986.676378582834	0.294820904578
1	5156	987.311378836782	0.201120853495
1	5161	987.512499690277	0.249454493872
1	5166	987.713620543772	0.237169570233
1	5169	987.914741397267	0.237884151118
1	5174	989.877277837242	0.201120853495
1	5179	991.644767601561	0.201120853495
1	5184	992.664702734398	0.201120853495
1	5189	993.526315000737	0.201120853495
1	5194	996.171289467542	0.201120853495
1	5201	996.496045279781	0.201120853495
1	5204	996.697166133276	0.354600641644
1	5209	997.476128184529	0.201120853495
1	5214	998.327238117574	0.201120853495
1	5219	998.604024676625	0.201120853495
1	5224	999.79483526712	0.201120853495
2	5	0.580400680316	0
2	10	0.890986062048	0
2	17	2.975296716137	0
2	22	3.176417569632	0.085790599756
2	25	3.377538423127	0.172448997698
2	30	5.231304809223	0
2	35	5.7020167962	0
2	40	6.695535589521	0
2	45	9.215593887825	0
2	54	9.650259273835	0
2	59	9.85138012733	0.145441482986
2	62	10.052500980825	0.2766358868
2	65	10.25362183432	0.325420648124
2	70	10.912638513272	0
2	75	11.37648443896	0
2	80	12.289432905971	0
2	87	12.901772457741	0
2	90	13.102893311236	0.10437066311
2	99	15.594359614583	0
2	104	15.795480468078	0.142589263672
2	109	15.996601321573	0.282463667797
2	114	16.197722175068	0.212913994791
2	117	16.398843028563	0.327220378967
2	120	16.599963882058	0.259933977578
2	125	17.961338371624	0
2	130	19.450203293777	0
2	139	20.204187222216	0
2	142	20.405308075711	0.157585667573
2	147	20.606428929206	0.336715706015
2	150	20.807549782701	0.099803915774
2	156	21.355573450862	0
2	161	21.988880514962	0
2	166	22.884234489589	0
2	171	24.343443320062	0
2	176	26.272636986619	0
2	181	28.264189569393	0
2	186	28.509593752281	0
2	191	30.012963556003	0
2	196	30.881400712832	0
2	201	31.137455129976	0
2	206	32.32041295238	0
2	211	33.74915235006	0
2	216	35.733792164149	0
2	221	36.316087598619	0
2	226	37.644499717869	0
2	231	37.889680225254	0
2	236	38.742699507465	0
2	243	39.710945108869	0
2	248	39.912065962364	0.007578117065
2	251	40.113186815859	0.056452380953
2	258	41.102216874435	0
2	261	41.30333772793	0.108177170369
2	266	42.520752301093	0
2	271	43.096225333468	0
2	276	43.913128772484	0
2	283	44.254476343374	0
2	288	44.455597196869	0.122149463387
2	291	44.656718050364	0.004346285026
2	296	46.127179198017	0
2	301	46.923566380673	0
2	307	47.430911499236	0
2	314	50.787862030773	0
2	317	50.988982884268	0.1908079685
2	322	51.977150589828	0
2	327	52.459473009818	0
2	332	53.494524048991	0
2	337	53.93702065327	0
2	342	55.231024906572	0
2	347	56.719321566465	0
2	352	59.50479451893	0
2	359	60.591808458114	0
2	362	60.792929311609	0.15267143677
2	369	61.339618326835	0
2	372	61.54073918033	0.198927902273
2	377	65.279119892966	0
2	382	65.704340869643	0
2	387	66.114197417269	0
2	392	67.247320004792	0
2	397	67.878419423618	0
2	404	68.255465033882	0
2	407	68.456585887377	0.077864047577
2	412	69.906886569606	0
2	417	70.91009730521	0
2	422	71.840361140794	0
2	429	72.285140841077	0
2	432	72.486261694572	0.082268752076
2	437	73.048603354811	0
2	442	75.22789143338	0
2	447	77.23030730733	0
2	452	77.649178782395	0
2	458	79.134907829943	0
2	463	79.936032079275	0
2	468	81.625843035983	0
2	473	83.31695072449	0
2	478	83.653689356151	0
2	483	85.581529494613	0
2	488	88.260157321165	0
2	493	89.247107742282	0
2	500	89.724097406287	0
2	503	89.925218259782	0.039193984499
2	508	90.415363228349	0
2	513	91.659646515326	0
2	518	92.175687313912	0
2	523	92.562420157494	0
2	528	93.055063853992	0
2	533	93.838932878656	0
2	538	94.203066927853	0
2	543	95.093958966869	0
2	548	99.902660843154	0
2	553	100.166166749108	0
2	560	102.3910477975	0
2	563	102.592168650995	0.189729138758
2	568	103.188627272187	0
2	573	104.491689300925	0
2	580	107.294322704518	0
2	583	107.495443558013	0.148621527899
2	588	107.804051453229	0
2	593	109.508718709935	0
2	598	110.438661816294	0
2	603	110.720691502768	0
2	611	111.351137499622	0
2	614	111.552258353117	0.121939489547
2	619	114.057426704949	0
2	624	114.963143606789	0
2	631	116.46551587528	0
2	634	116.666636728775	0.001236675127
2	639	116.879157398628	0
2	646	117.123372247094	0
2	649	117.324493100589	0.167106827824
2	654	117.875115734887	0
2	661	118.376094203368	0
2	666	118.577215056863	0.149382239936
2	671	118.778335910358	0.099579875282
2	674	118.979456763853	0.003996211304
2	679	119.260952864473	0
2	684	119.554588477789	0
2	689	120.778304013194	0
2	694	121.221648481764	0
2	699	122.706094948548	0
2	706	123.407309670478	0
2	711	123.608430523973	0.063411288323
2	714	123.809551377468	0.099746676199
2	719	126.191251577825	0
2	724	127.060488650526	0
2	729	127.266013835821	0
2	734	127.475867362348	0
2	739	128.562065365599	0
2	746	128.964349091662	0
2	749	129.165469945157	0.009898953417
2	754	129.653810548448	0
2	760	131.814037410982	0
2	765	132.362779347774	0
2	770	134.042200436823	0
2	775	134.562885853229	0
2	780	134.797468950687	0
2	787	135.674994267099	0
2	790	135.876115120594	0.089392575045
2	795	140.573587047481	0
2	802	142.139418133068	0
2	805	142.340538986563	0.056667641844
2	810	143.363263242333	0
2	817	144.070582494629	0
2	820	144.271703348124	0.07897363344
2	827	145.847732784843	0
2	830	146.048853638338	0.146862813912
2	835	149.24642099731	0
2	840	150.612657238516	0
2	847	152.193493934238	0
2	852	152.394614787733	0.171468038854
2	859	152.595735641228	0.175829312917
2	862	152.796856494723	0.102399121187
2	865	152.997977348218	0.212839180123
2	870	153.796380253592	0
2	875	155.536396347587	0
2	880	156.053898736914	0
2	885	156.355874525197	0
2	890	161.004884131604	0
2	895	163.650108940048	0
2	900	164.137909411268	0
2	907	167.536963969543	0
2	913	167.870196399191	0.248987524584
2	916	168.071317252686	0.23999783843
2	921	169.327347017101	0
2	928	172.657796858659	0
2	931	172.858917712154	0.077034159977
2	936	173.828610024866	0
2	941	174.689424711564	0
2	946	174.962041081789	0
2	951	176.08299647413	0
2	958	177.699076301614	0
2	961	177.900197155109	0.170465315913
2	966	179.182447443392	0
2	971	182.657886941873	0
2	976	182.895026340738	0
2	983	184.78831441495	0
2	986	184.989435268445	0.10073382183
2	991	185.393136117698	0
2	998	186.580749210186	0
2	1001	186.781870063681	0.194770372546
2	1006	187.163622983466	0
2	1011	188.325195268607	0
2	1016	189.189424121927	0
2	1021	190.004028107263	0
2	1026	191.264337564077	0
2	1031	191.662254013758	0
2	1036	192.09661780165	0
2	1041	193.635178067082	0
2	1046	194.004626392345	0
2	1053	194.508323309735	0
2	1058	194.70944416323	0.131044314728
2	1062	195.042676592878	0.145571551964
2	1067	195.439715717602	0
2	1072	196.099300588118	0
2	1077	196.361133119802	0
2	1082	197.213803584386	0
2	1087	197.579261244609	0
2	1092	198.288403030726	0
2	1097	198.8060399395	0
2	1102	199.845600285295	0
2	1107	202.645181087933	0
2	1114	203.137832327909	0
2	1117	203.338953181404	0.001820206503
2	1122	204.969519056061	0
2	1127	205.185739244807	0
2	1132	205.803798772426	0
2	1137	206.412864553173	0
2	1142	206.915777062635	0
2	1147	209.404759828072	0
2	1154	209.727448269674	0
2	1157	209.928569123169	0.086651850121
2	1162	212.745117795057	0
2	1171	213.235549995171	0
2	1174	213.436670848666	0.149287695996
2	1177	213.637791702161	0.267211624675
2	1182	214.115974751261	0
2	1187	214.624389264778	0
2	1192	215.634192558776	0
2	1197	217.720718797569	0
2	1202	219.779966282912	0
2	1209	220.183536583571	0
2	1213	220.516769013219	0.18092795581
2	1218	221.402885374927	0
2	1223	222.060418861057	0
2	1228	224.853798275783	0
2	1235	225.877088581425	0
2	1238	226.07820943492	0.01065291279
2	1243	226.741528692891	0
2	1248	227.68648242349	0
2	1255	228.542948796105	0
2	1258	228.7440696496	0.135241359812
2	1265	230.02818940899	0
2	1268	230.229310262485	0.068041785218
2	1273	230.832069796244	0
2	1280	231.368407297499	0
2	1285	231.569528150994	0.087672352284
2	1288	231.770649004489	0.127606895713
2	1293	232.097822414265	0
2	1298	234.268901542992	0
2	1303	235.042083518275	0
2	1308	235.933941880879	0
2	1313	238.553070002084	0
2	1318	239.701434207231	0
2	1325	241.336328185738	0
2	1330	241.537449039233	0.094955398754
2	1333	241.738569892728	0.112645406555
2	1338	243.864682967494	0
2	1343	244.190677745501	0
2	1348	244.647149157575	0
2	1353	245.169537529067	0
2	1358	247.064058721657	0
2	1364	247.412652606204	0
2	1369	248.635669724066	0
2	1376	250.032708133573	0
2	1381	250.233828987068	0.199829509428
2	1384	250.434949840563	0.108725344549
2	1389	251.256051454658	0
2	1396	251.965770824011	0
2	1399	252.166891677506	0.179523991756
2	1404	254.562285841344	0
2	1409	255.096899538139	0
2	1416	255.674293367298	0
2	1421	255.875414220793	0.150756573106
2	1424	256.076535074288	0.019570522137
2	1429	260.918578468567	0
2	1436	261.618119929464	0
2	1439	261.819240782959	0.15308903461
2	1446	264.991087159185	0
2	1449	265.19220801268	0.048272804494
2	1454	265.482832624861	0
2	1459	265.773156103969	0
2	1464	266.489170824999	0
2	1469	266.888691819511	0
2	1474	267.160521495508	0
2	1479	268.526555374986	0
2	1484	269.411818972538	0
2	1491	269.625457224215	0
2	1494	269.82657807771	0.157587639119
2	1499	271.577581640839	0
2	1504	273.296677340371	0
2	1509	273.946838410835	0
2	1515	275.06961027951	0
2	1520	279.701015715867	0
2	1525	280.213653474981	0
2	1530	280.64053566505	0
2	1535	282.543948729523	0
2	1540	283.313531329402	0
2	1545	284.05292995493	0
2	1550	284.302407131264	0
2	1555	285.12819477146	0
2	1560	286.163858448579	0
2	1565	287.000863600553	0
2	1570	288.028596087543	0
2	1575	288.370352016719	0
2	1580	289.965293037554	0
2	1585	290.350694430242	0
2	1590	291.19435646771	0
2	1595	292.378169491974	0
2	1600	292.793706235707	0
2	1605	293.813902966876	0
2	1610	298.140757080887	0
2	1615	298.979600986567	0
2	1620	299.870735478507	0
2	1625	300.819500736141	0
2	1630	302.71809990785	0
2	1635	303.087262292891	0
2	1640	303.467524487285	0
2	1645	303.948589920383	0
2	1650	305.622620075326	0
2	1655	305.955682477911	0
2	1660	306.290228866271	0
2	1666	306.741340975727	0
2	1671	307.82392751851	0
2	1678	308.196332379788	0
2	1681	308.397453233283	0.078979107859
2	1686	308.813011652445	0
2	1691	312.733006665696	0
2	1696	313.503046251609	0
2	1703	315.117578142465	0
2	1706	315.31869899596	0.051621579825
2	1711	317.912328578078	0
2	1716	323.414268848483	0
2	1721	324.740053323668	0
2	1726	326.568898220293	0
2	1731	326.94664735413	0
2	1736	327.234794181951	0
2	1741	333.777163167232	0
2	1746	334.432621706271	0
2	1751	335.159000189793	0
2	1756	336.141952051573	0
2	1761	336.565599981274	0
2	1766	336.943701835677	0
2	1771	338.609927329476	0
2	1776	338.888089625876	0
2	1783	339.225708711329	0
2	1788	339.426829564824	0.193797534152
2	1791	339.627950418319	0.170545820653
2	1796	340.484081314619	0
2	1801	340.861143648194	0
2	1806	344.298834092341	0
2	1811	344.810369698596	0
2	1817	345.203725793428	0
2	1822	346.259064473596	0
2	1829	347.986116405085	0
2	1832	348.18723725858	0.170320137215
2	1837	350.208642729988	0
2	1842	350.416702816961	0
2	1847	350.888796690967	0
2	1852	351.090719094368	0
2	1857	351.405655074024	0
2	1862	352.535723732621	0
2	1867	353.313208595521	0
2	1874	354.071112501839	0
2	1879	354.272233355334	0.136544486417
2	1882	354.473354208829	0.145032070109
2	1887	358.406155959414	0
2	1892	359.019686931572	0
2	1897	359.244533085831	0
2	1902	360.790937823768	0
2	1909	361.335609477338	0
2	1914	361.536730330833	0.163138974174
2	1919	361.737851184328	0.085671207896
2	1922	361.938972037823	0.172212986275
2	1927	364.252200110341	0
2	1932	364.596991697257	0
2	1937	367.171053861133	0
2	1942	369.087751388669	0
2	1947	369.38885816005	0
2	1952	370.539236895131	0
2	1959	371.18804794739	0
2	1964	371.389168800885	0.188982022101
2	1968	371.722401230533	0.312281627553
2	1973	372.905030033855	0
2	1978	373.414286666698	0
2	1983	375.100877447717	0
2	1988	376.941799746142	0
2	1993	380.131154709554	0
2	1998	381.034219390445	0
2	2003	383.923540803204	0
2	2008	384.807725152542	0
2	2013	386.188930808874	0
2	2018	390.630033838486	0
2	2023	392.791608775873	0
2	2028	393.313683315355	0
2	2033	393.64618527208	0
2	2038	393.998962470303	0
2	2045	398.857746343097	0
2	2048	399.058867196592	0.130405501353
2	2053	399.842769111383	0
2	2058	400.725706326805	0
2	2063	400.9849090401	0
2	2068	403.128332449168	0
2	2073	404.756794554851	0
2	2082	407.272647139189	0
2	2085	407.473767992684	0.153694680364
2	2088	407.674888846179	0.205423033765
2	2093	408.455056778983	0
2	2098	408.86977095166	0
2	2103	412.94859929645	0
2	2108	413.953539156633	0
2	2113	414.404019627711	0
2	2119	415.641356420177	0
2	2126	416.579989013721	0
2	2129	416.781109867216	0.184522326743
2	2134	418.041046723482	0
2	2139	419.16847850211	0
2	2144	419.88162979521	0
2	2149	420.776534850377	0
2	2154	423.524448494122	0
2	2159	426.021835801315	0
2	2164	426.258720199331	0
2	2169	427.581721177784	0
2	2174	429.947179229053	0
2	2179	430.493926404848	0
2	2184	433.487686801118	0
2	2189	433.747549380085	0
2	2196	436.022340119577	0
2	2199	436.223460973072	0.052711115876
2	2206	436.819564572089	0
2	2209	437.020685425584	0.13141306676
2	2214	438.204113692454	0
2	2221	438.734400692421	0
2	2224	438.935521545916	0.103206031452
2	2229	440.405900088324	0
2	2234	440.986067219574	0
2	2241	441.208542040318	0
2	2246	441.409662893813	0.036782468756
2	2251	441.610783747308	0.046714635571
2	2254	441.811904600803	0.136997603596
2	2259	444.024135021094	0
2	2264	444.930773910928	0
2	2270	448.225957037608	0
2	2275	448.916204663669	0
2	2280	450.548510998689	0
2	2287	451.639342120689	0
2	2292	451.840462974184	0.19356452237
2	2295	452.041583827679	0.12078744945
2	2300	453.082767986526	0
2	2305	453.32702854141	0
2	2312	454.850930962796	0
2	2315	455.052051816291	0.048277069583
2	2320	455.895308885814	0
2	2327	456.505044994306	0
2	2332	456.706165847801	0.048923082828
2	2335	456.907286701296	0.156710632112
2	2340	457.257076502286	0
2	2345	458.358464422613	0
2	2350	459.522694314272	0
2	2355	461.147060179004	0
2	2360	464.097673716696	0
2	2365	464.511943638783	0
2	2372	466.694460203022	0
2	2375	466.895581056517	0.099931975922
2	2380	467.921871192099	0
2	2385	469.684248054815	0
2	2390	469.901514091182	0
2	2395	470.621695210288	0
2	2400	471.966154641246	0
2	2405	472.640971973605	0
2	2410	475.257369146552	0
2	2417	476.164807293734	0
2	2421	476.498039723382	0.18594381493
2	2426	476.938715207511	0
2	2431	479.973523162048	0
2	2438	482.264025524799	0
2	2441	482.465146378294	0.178574231481
2	2446	483.953931199497	0
2	2451	484.795618269428	0
2	2456	487.436648410918	0
2	2461	488.18817920365	0
2	2466	488.809003028989	0
2	2471	490.878931302866	0
2	2476	491.81394794354	0
2	2483	492.118671529829	0
2	2486	492.319792383324	0.181846321329
2	2491	493.714442692292	0
2	2496	494.391621233297	0
2	2501	495.416733427584	0
2	2506	496.782573286036	0
2	2511	498.216576136757	0
2	2516	500.76137976901	0
2	2523	501.002203393192	0
2	2526	501.203324246687	0.072716423124
2	2531	502.76961110469	0
2	2536	503.536910974424	0
2	2541	504.633863455926	0
2	2548	504.957850018271	0
2	2551	505.158970871766	0.052637892947
2	2556	506.59904068472	0
2	2561	507.297261373506	0
2	2566	507.649909333306	0
2	2572	507.983141762954	0.039144312777
2	2577	509.160584845281	0
2	2582	509.816492307132	0
2	2587	511.37291022673	0
2	2592	511.979459856162	0
2	2597	512.403138682032	0
2	2602	514.738396158449	0
2	2607	515.521069991114	0
2	2612	516.319658267159	0
2	2617	519.191761694568	0
2	2622	519.997762153712	0
2	2627	521.559662597973	0
2	2632	521.936388320807	0
2	2637	522.952339225625	0
2	2644	525.173689816731	0
2	2647	525.374810670226	0.096843320077
2	2652	526.348812263606	0
2	2657	526.652609155909	0
2	2662	527.964711475126	0
2	2667	528.783576354737	0
2	2672	534.414339171541	0
2	2677	534.724354336212	0
2	2682	535.277448531964	0
2	2687	535.94201983699	0
2	2692	537.344278676489	0
2	2701	538.720189840799	0
2	2704	538.921310694294	0.17141154675
2	2707	539.122431547789	0.322714352583
2	2712	539.464943293933	0
2	2717	542.62202776	0
2	2723	542.955260189648	0.030541819708
2	2728	544.320619232888	0
2	2733	544.590898979343	0
2	2738	547.279304904658	0
2	2743	548.214254545638	0
2	2750	549.496083598492	0
2	2753	549.697204451987	0.114422880935
2	2758	550.586218839533	0
2	2763	551.331524756958	0
2	2768	552.646887811602	0
2	2773	554.358355744409	0
2	2780	556.929332961382	0
2	2785	557.130453814877	0.144030100334
2	2788	557.331574668372	0.035972795458
2	2793	558.771181637252	0
2	2798	560.063020475212	0
2	2803	560.609278073165	0
2	2808	562.221255420028	0
2	2815	562.919993084016	0
2	2818	563.121113937511	0.142164750129
2	2825	563.508914332924	0
2	2830	563.710035186419	0.198979791241
2	2833	563.911156039914	0.183665463127
2	2840	564.346364217829	0
2	2843	564.547485071324	0.140111562691
2	2848	565.145092659544	0
2	2853	565.633951030547	0
2	2860	566.709577115414	0
2	2863	566.910697968909	0.136088546668
2	2868	568.55155523156	0
2	2874	569.606177954423	0
2	2879	569.959137215351	0
2	2884	571.234188887862	0
2	2889	573.967342870548	0
2	2894	575.110414033995	0
2	2899	576.101453932091	0
2	2904	577.594534524326	0
2	2909	578.41095571969	0
2	2916	581.255029297981	0
2	2921	581.456150151476	0.072147945444
2	2924	581.657271004971	0.035554767489
2	2933	583.513779369803	0
2	2940	583.714900223298	0.164942481
2	2943	583.916021076793	0.2794313491
2	2948	584.117141930288	0.316636988086
2	2951	584.318262783783	0.422865394925
2	2954	584.519383637278	0.304084432354
2	2959	585.190204268438	0
2	2964	585.919113584543	0
2	2969	586.601592807378	0
2	2974	590.626790884528	0
2	2983	592.364387799548	0
2	2986	592.565508653043	0.174691207796
2	2989	592.766629506538	0.254805225192
2	2994	597.873713312808	0
2	2999	598.687888022838	0
2	3004	599.272630242366	0
2	3009	599.605920718309	0
2	3014	601.241901481228	0
2	3019	602.268883990878	0
2	3025	602.707439607798	0
2	3030	603.742675757543	0
2	3035	604.377982523072	0
2	3042	606.421720924237	0
2	3045	606.622841777732	0.172537852131
2	3050	607.975430035263	0
2	3057	608.397830202868	0
2	3060	608.598951056363	0.041298303426
2	3067	608.807644896105	0
2	3072	609.0087657496	0.162225700345
2	3075	609.209886603095	0.172060337159
2	3082	609.759329554547	0
2	3087	609.960450408042	0.125520422032
2	3090	610.161571261537	0.200254188624
2	3095	610.793829134876	0
2	3102	611.758141316933	0
2	3105	611.959262170428	0.183375061048
2	3110	612.238106914469	0
2	3115	613.343756277036	0
2	3120	613.549489902786	0
2	3127	614.088012601911	0
2	3130	614.289133455406	0.038593081708
2	3137	616.565458441735	0
2	3140	616.76657929523	0.135676059863
2	3145	618.615286990754	0
2	3150	618.845518974082	0
2	3155	622.334790793894	0
2	3160	622.652228782471	0
2	3165	623.976960824762	0
2	3170	625.259673046526	0
2	3176	626.384312102397	0
2	3181	627.312088448295	0
2	3186	629.604892169611	0
2	3191	629.998211331437	0
2	3196	630.932830798824	0
2	3201	631.832346733649	0
2	3206	632.407520153186	0
2	3213	632.902598106813	0
2	3218	633.103718960308	0.13060401517
2	3221	633.304839813803	0.195682583626
2	3226	634.944570107144	0
2	3231	635.35704276967	0
2	3238	637.2453988597	0
2	3241	637.446519713195	0.020138632645
2	3246	638.593322952002	0
2	3251	638.811667896231	0
2	3256	641.535778607128	0
2	3263	641.882879703559	0
2	3268	642.084000557054	0.165323481075
2	3273	642.285121410549	0.026229527062
2	3276	642.486242264044	0.044786413959
2	3281	642.841347816972	0
2	3286	643.378047436041	0
2	3291	644.279880485982	0
2	3296	644.658989521521	0
2	3301	645.69626148517	0
2	3308	646.33355952906	0
2	3311	646.534680382555	0.071634944951
2	3316	648.173939556232	0
2	3321	649.51684409511	0
2	3327	649.850076524758	0.014175105173
2	3332	651.604105436016	0
2	3337	654.004887303682	0
2	3342	656.959661820002	0
2	3347	657.507153144585	0
2	3354	658.749133892027	0
2	3357	658.950254745522	0.106097308201
2	3362	660.238535895919	0
2	3369	661.840016094048	0
2	3374	662.041136947543	0.188510163951
2	3377	662.242257801038	0.027585492515
2	3382	664.657710010771	0
2	3387	665.03160009564	0
2	3392	665.675913869175	0
2	3401	665.916425193153	0
2	3404	666.117546046648	0.179659353613
2	3407	666.318666900143	0.283903226426
2	3414	666.761877408151	0
2	3417	666.962998261646	0.033676269008
2	3422	670.185053204651	0
2	3427	671.804087427624	0
2	3432	672.638041226461	0
2	3437	673.481274175589	0
2	3442	675.337597835024	0
2	3447	676.468515388624	0
2	3452	677.062212572832	0
2	3457	677.642613434294	0
2	3462	678.504441049535	0
2	3469	680.043018002263	0
2	3474	680.244138855758	0.129403030223
2	3480	680.577371285406	0.243797354135
2	3483	680.778492138901	0.270670272616
2	3488	683.039714904429	0
2	3493	683.705231400477	0
2	3500	684.455669975162	0
2	3503	684.656790828657	0.132018537068
2	3508	685.837702702964	0
2	3513	686.450010969532	0
2	3518	687.449947623825	0
2	3523	688.198395904484	0
2	3528	688.619348066428	0
2	3533	689.173149721324	0
2	3538	689.853174445525	0
2	3543	690.256952772227	0
2	3548	691.299355257032	0
2	3553	691.570400349295	0
2	3558	695.048076339895	0
2	3565	698.376193939784	0
2	3568	698.577314793279	0.103502283046
2	3573	699.083805495537	0
2	3578	699.717360772379	0
2	3583	700.085567526605	0
2	3588	700.510455468875	0
2	3593	701.736418598276	0
2	3598	702.997140566284	0
2	3607	704.126771125552	0
2	3610	704.327891979047	0.094216117345
2	3615	704.529012832542	0.280752674239
2	3620	704.730133686037	0.009252232058
2	3623	704.931254539532	0.15498166909
2	3629	705.343685698273	0
2	3636	705.753885037205	0
2	3639	705.9550058907	0.198748393124
2	3644	706.552771792899	0
2	3649	706.79473423733	0
2	3656	707.120673873646	0
2	3659	707.321794727141	0.057884093198
2	3666	707.732943300088	0
2	3669	707.934064153583	0.098625840071
2	3674	709.485334795232	0
2	3679	710.406222439014	0
2	3686	713.399950145727	0
2	3689	713.601070999222	0.105406410074
2	3696	713.806840959112	0
2	3699	714.007961812607	0.16730963985
2	3704	714.23506581616	0
2	3709	714.601190254636	0
2	3716	715.060224455956	0
2	3719	715.261345309451	0.099010430051
2	3724	716.594732267499	0
2	3729	722.236387011659	0
2	3736	723.29412717382	0
2	3739	723.495248027315	0.088927082824
2	3744	724.144256689748	0
2	3749	724.517644058372	0
2	3754	724.845122905352	0
2	3759	726.338432317642	0
2	3764	727.688773061508	0
2	3769	729.509735316092	0
2	3776	730.074252675627	0
2	3780	730.407485105275	0.18512804221
2	3785	731.727351922489	0
2	3790	732.165607813591	0
2	3795	733.494461366622	0
2	3800	734.611136564902	0
2	3805	734.865640849261	0
2	3810	735.180009751286	0
2	3815	736.003926061237	0
2	3820	736.355443632099	0
2	3825	737.669700828986	0
2	3834	737.942369329803	0
2	3839	738.143490183298	0.154672188394
2	3842	738.344611036793	0.310452162545
2	3845	738.545731890288	0.241002563816
2	3850	738.992427381291	0
2	3855	739.318184501305	0
2	3860	740.781753820158	0
2	3865	744.865300637187	0
2	3870	746.3319051423	0
2	3875	747.618862825643	0
2	3880	748.263103482886	0
2	3885	750.290446499273	0
2	3890	752.122670593081	0
2	3895	753.306407521695	0
2	3900	754.082618507965	0
2	3905	754.591737406664	0
2	3910	755.261533919269	0
2	3915	755.839620413727	0
2	3920	757.259900200005	0
2	3927	757.912486288298	0
2	3931	758.245718717946	0.282693126836
2	3938	758.791847791678	0
2	3941	758.992968645173	0.099791822899
2	3946	761.427565247496	0
2	3951	762.317636024074	0
2	3956	762.644818117602	0
2	3963	765.737638130345	0
2	3966	765.93875898384	0.200180980119
2	3971	766.285524000664	0
2	3976	766.568252696239	0
2	3981	767.258009611375	0
2	3988	768.927049923451	0
2	3991	769.128170776946	0.02607423214
2	3996	769.50832875453	0
2	4001	770.119669960564	0
2	4006	770.514322995205	0
2	4011	772.073391461568	0
2	4020	773.956340859718	0
2	4023	774.157461713213	0.134504418399
2	4030	774.358582566708	0.2587175995
2	4033	774.559703420203	0.076747619856
2	4036	774.760824273698	0.231283202737
2	4043	776.335820500571	0
2	4046	776.536941354066	0.093314145316
2	4051	777.235377414972	0
2	4056	777.495916773246	0
2	4061	778.261230788887	0
2	4068	780.322545003348	0
2	4071	780.523665856843	0.127887276879
2	4076	781.185113264967	0
2	4082	782.368299590898	0
2	4089	783.485878186217	0
2	4092	783.686999039712	0.048502809562
2	4097	784.646875242547	0
2	4102	785.40739237775	0
2	4107	790.255513640768	0
2	4112	790.514189096319	0
2	4117	791.366186517404	0
2	4122	793.623351401391	0
2	4127	794.264869895113	0
2	4132	794.640143336881	0
2	4139	795.129431540269	0
2	4142	795.330552393764	0.066185597313
2	4147	796.23206096777	0
2	4152	797.943864630511	0
2	4157	799.010181047063	0
2	4162	799.961999998957	0
2	4167	800.750108256768	0
2	4172	801.956920948217	0
2	4177	802.424057768526	0
2	4182	802.677876771971	0
2	4187	804.245297429101	0
2	4192	806.242562242507	0
2	4197	806.699317879763	0
2	4204	808.144181447517	0
2	4207	808.345302301012	0.181826630544
2	4212	808.57960463967	0
2	4219	808.811236821977	0
2	4224	809.012357675472	0.083710685759
2	4227	809.213478528967	0.042019656077
2	4233	811.905938442852	0
2	4238	812.670606118544	0
2	4243	813.221718850649	0
2	4250	814.908878718758	0
2	4255	815.109999572253	0.075236017231
2	4260	815.311120425748	0.167100048962
2	4263	815.512241279243	0.194079841346
2	4268	816.141629917724	0
2	4273	819.621847947482	0
2	4278	820.389879753501	0
2	4283	820.744197429476	0
2	4290	821.923561432034	0
2	4293	822.124682285529	0.021323427854
2	4298	822.375497238718	0
2	4303	823.801471033386	0
2	4310	825.057726625083	0
2	4313	825.258847478578	0.169966072211
2	4320	826.252977473894	0
2	4323	826.454098327389	0.176620542731
2	4328	828.72676749962	0
2	4333	829.2002448974	0
2	4338	830.222021483944	0
2	4343	833.066341683305	0
2	4350	834.826178034488	0
2	4355	835.027298887983	0.036696241221
2	4358	835.228419741478	0.097562292602
2	4363	836.064185271475	0
2	4368	837.344994649324	0
2	4373	840.400042536142	0
2	4378	841.058114762418	0
2	4384	843.691318426084	0
2	4391	845.140044062162	0
2	4394	845.341164915657	0.153187573605
2	4399	846.455791490725	0
2	4406	848.332399493474	0
2	4409	848.533520346969	0.149252134451
2	4416	852.002462757665	0
2	4419	852.20358361116	0.106379996654
2	4424	853.447818848441	0
2	4431	854.614361911129	0
2	4434	854.815482764624	0.172846704739
2	4439	857.238725220438	0
2	4444	857.555258186667	0
2	4449	857.953748064405	0
2	4454	859.558707117195	0
2	4459	860.552866368653	0
2	4464	860.896190700067	0
2	4469	862.359417009756	0
2	4474	864.041488919495	0
2	4479	864.60547985432	0
2	4484	864.898440925572	0
2	4489	865.231149236421	0
2	4494	866.623249627253	0
2	4501	867.331299383533	0
2	4506	867.532420237028	0.084141483414
2	4509	867.733541090523	0.045434039665
2	4514	868.476892868404	0
2	4519	869.036547282176	0
2	4524	871.362302252521	0
2	4529	871.77238421347	0
2	4535	872.207752652958	0
2	4540	873.378540411774	0
2	4545	874.691898425326	0
2	4552	877.460813447443	0
2	4555	877.661934300938	0.070818901129
2	4560	879.46993725976	0
2	4567	881.324631485089	0
2	4572	881.525752338584	0.194321863294
2	4575	881.726873192079	0.112904418879
2	4580	882.108319852388	0
[...]
7	3127	614.088012601911	0
7	3130	614.289133455406	0
7	3137	616.565458441735	0
7	3140	616.76657929523	0
7	3145	618.615286990754	0
7	3150	618.845518974082	0
7	3155	622.334790793894	0
7	3160	622.652228782471	0
7	3165	623.976960824762	0
7	3170	625.259673046526	0
7	3176	626.384312102397	0
7	3181	627.312088448295	0
7	3186	629.604892169611	0
7	3191	629.998211331437	0
7	3196	630.932830798824	0
7	3201	631.832346733649	0
7	3206	632.407520153186	0
7	3213	632.902598106813	0
7	3218	633.103718960308	0
7	3221	633.304839813803	0
7	3226	634.944570107144	0
7	3231	635.35704276967	0
7	3238	637.2453988597	0
7	3241	637.446519713195	0
7	3246	638.593322952002	0
7	3251	638.811667896231	0
7	3256	641.535778607128	0
7	3263	641.882879703559	0
7	3268	642.084000557054	0
7	3273	642.285121410549	0
7	3276	642.486242264044	0
7	3281	642.841347816972	0
7	3286	643.378047436041	0
7	3291	644.279880485982	0
7	3296	644.658989521521	0
7	3301	645.69626148517	0
7	3308	646.33355952906	0
7	3311	646.534680382555	0
7	3316	648.173939556232	0
7	3321	649.51684409511	0
7	3327	649.850076524758	0
7	3332	651.604105436016	0
7	3337	654.004887303682	0
7	3342	656.959661820002	0
7	3347	657.507153144585	0
7	3354	658.749133892027	0
7	3357	658.950254745522	0
7	3362	660.238535895919	0
7	3369	661.840016094048	0
7	3374	662.041136947543	0
7	3377	662.242257801038	0
7	3382	664.657710010771	0
7	3387	665.03160009564	0
7	3392	665.675913869175	0
7	3401	665.916425193153	0
7	3404	666.117546046648	0
7	3407	666.318666900143	0
7	3414	666.761877408151	0
7	3417	666.962998261646	0
7	3422	670.185053204651	0
7	3427	671.804087427624	0
7	3432	672.638041226461	0
7	3437	673.481274175589	0
7	3442	675.337597835024	0
7	3447	676.468515388624	0
7	3452	677.062212572832	0
7	3457	677.642613434294	0
7	3462	678.504441049535	0
7	3469	680.043018002263	0
7	3474	680.244138855758	0
7	3480	680.577371285406	0
7	3483	680.778492138901	0
7	3488	683.039714904429	0
7	3493	683.705231400477	0
7	3500	684.455669975162	0
7	3503	684.656790828657	0
7	3508	685.837702702964	0
7	3513	686.450010969532	0
7	3518	687.449947623825	0
7	3523	688.198395904484	0
7	3528	688.619348066428	0
7	3533	689.173149721324	0
7	3538	689.853174445525	0
7	3543	690.256952772227	0
7	3548	691.299355257032	0
7	3553	691.570400349295	0
7	3558	695.048076339895	0
7	3565	698.376193939784	0
7	3568	698.577314793279	0
7	3573	699.083805495537	0
7	3578	699.717360772379	0
7	3583	700.085567526605	0
7	3588	700.510455468875	0
7	3593	701.736418598276	0
7	3598	702.997140566284	0
7	3607	704.126771125552	0
7	3610	704.327891979047	0
7	3615	704.529012832542	0
7	3620	704.730133686037	0
7	3623	704.931254539532	0
7	3629	705.343685698273	0
7	3636	705.753885037205	0
7	3639	705.9550058907	0
7	3644	706.552771792899	0
7	3649	706.79473423733	0
7	3656	707.120673873646	0
7	3659	707.321794727141	0
7	3666	707.732943300088	0
7	3669	707.934064153583	0
7	3674	709.485334795232	0
7	3679	710.406222439014	0
7	3686	713.399950145727	0
7	3689	713.601070999222	0
7	3696	713.806840959112	0
7	3699	714.007961812607	0
7	3704	714.23506581616	0
7	3709	714.601190254636	0
7	3716	715.060224455956	0
7	3719	715.261345309451	0
7	3724	716.594732267499	0
7	3729	722.236387011659	0
7	3736	723.29412717382	0
7	3739	723.495248027315	0
7	3744	724.144256689748	0
7	3749	724.517644058372	0
7	3754	724.845122905352	0
7	3759	726.338432317642	0
7	3764	727.688773061508	0
7	3769	729.509735316092	0
7	3776	730.074252675627	0
7	3780	730.407485105275	0
7	3785	731.727351922489	0
7	3790	732.165607813591	0
7	3795	733.494461366622	0
7	3800	734.611136564902	0
7	3805	734.865640849261	0
7	3810	735.180009751286	0
7	3815	736.003926061237	0
7	3820	736.355443632099	0
7	3825	737.669700828986	0
7	3834	737.942369329803	0
7	3839	738.143490183298	0
7	3842	738.344611036793	0
7	3845	738.545731890288	0
7	3850	738.992427381291	0
7	3855	739.318184501305	0
7	3860	740.781753820158	0
7	3865	744.865300637187	0
7	3870	746.3319051423	0
7	3875	747.618862825643	0
7	3880	748.263103482886	0
7	3885	750.290446499273	0
7	3890	752.122670593081	0
7	3895	753.306407521695	0
7	3900	754.082618507965	0
7	3905	754.591737406664	0
7	3910	755.261533919269	0
7	3915	755.839620413727	0
7	3920	757.259900200005	0
7	3927	757.912486288298	0
7	3931	758.245718717946	0
7	3938	758.791847791678	0
7	3941	758.992968645173	0
7	3946	761.427565247496	0
7	3951	762.317636024074	0
7	3956	762.644818117602	0
7	3963	765.737638130345	0
7	3966	765.93875898384	0
7	3971	766.285524000664	0
7	3976	766.568252696239	0
7	3981	767.258009611375	0
7	3988	768.927049923451	0
7	3991	769.128170776946	0
7	3996	769.50832875453	0
7	4001	770.119669960564	0
7	4006	770.514322995205	0
7	4011	772.073391461568	0
7	4020	773.956340859718	0
7	4023	774.157461713213	0
7	4030	774.358582566708	0
7	4033	774.559703420203	0
7	4036	774.760824273698	0
7	4043	776.335820500571	0
7	4046	776.536941354066	0
7	4051	777.235377414972	0
7	4056	777.495916773246	0
7	4061	778.261230788887	0
7	4068	780.322545003348	0
7	4071	780.523665856843	0
7	4076	781.185113264967	0
7	4082	782.368299590898	0
7	4089	783.485878186217	0
7	4092	783.686999039712	0
7	4097	784.646875242547	0
7	4102	785.40739237775	0
7	4107	790.255513640768	0
7	4112	790.514189096319	0
7	4117	791.366186517404	0
7	4122	793.623351401391	0
7	4127	794.264869895113	0
7	4132	794.640143336881	0
7	4139	795.129431540269	0
7	4142	795.330552393764	0
7	4147	796.23206096777	0
7	4152	797.943864630511	0
7	4157	799.010181047063	0
7	4162	799.961999998957	0
7	4167	800.750108256768	0
7	4172	801.956920948217	0
7	4177	802.424057768526	0
7	4182	802.677876771971	0
7	4187	804.245297429101	0
7	4192	806.242562242507	0
7	4197	806.699317879763	0
7	4204	808.144181447517	0
7	4207	808.345302301012	0
7	4212	808.57960463967	0
7	4219	808.811236821977	0
7	4224	809.012357675472	0
7	4227	809.213478528967	0
7	4233	811.905938442852	0
7	4238	812.670606118544	0
7	4243	813.221718850649	0
7	4250	814.908878718758	0
7	4255	815.109999572253	0
7	4260	815.311120425748	0
7	4263	815.512241279243	0
7	4268	816.141629917724	0
7	4273	819.621847947482	0
7	4278	820.389879753501	0
7	4283	820.744197429476	0
7	4290	821.923561432034	0
7	4293	822.124682285529	0
7	4298	822.375497238718	0
7	4303	823.801471033386	0
7	4310	825.057726625083	0
7	4313	825.258847478578	0
7	4320	826.252977473894	0
7	4323	826.454098327389	0
7	4328	828.72676749962	0
7	4333	829.2002448974	0
7	4338	830.222021483944	0
7	4343	833.066341683305	0
7	4350	834.826178034488	0
7	4355	835.027298887983	0
7	4358	835.228419741478	0
7	4363	836.064185271475	0
7	4368	837.344994649324	0
7	4373	840.400042536142	0
7	4378	841.058114762418	0
7	4384	843.691318426084	0
7	4391	845.140044062162	0
7	4394	845.341164915657	0
7	4399	846.455791490725	0
7	4406	848.332399493474	0
7	4409	848.533520346969	0
7	4416	852.002462757665	0
7	4419	852.20358361116	0
7	4424	853.447818848441	0
7	4431	854.614361911129	0
7	4434	854.815482764624	0
7	4439	857.238725220438	0
7	4444	857.555258186667	0
7	4449	857.953748064405	0
7	4454	859.558707117195	0
7	4459	860.552866368653	0
7	4464	860.896190700067	0
7	4469	862.359417009756	0
7	4474	864.041488919495	0
7	4479	864.60547985432	0
7	4484	864.898440925572	0
7	4489	865.231149236421	0
7	4494	866.623249627253	0
7	4501	867.331299383533	0
7	4506	867.532420237028	0
7	4509	867.733541090523	0
7	4514	868.476892868404	0
7	4519	869.036547282176	0
7	4524	871.362302252521	0
7	4529	871.77238421347	0
7	4535	872.207752652958	0
7	4540	873.378540411774	0
7	4545	874.691898425326	0
7	4552	877.460813447443	0
7	4555	877.661934300938	0
7	4560	879.46993725976	0
7	4567	881.324631485089	0
7	4572	881.525752338584	0
7	4575	881.726873192079	0
7	4580	882.108319852388	0
7	4585	882.336137386537	0
7	4590	882.82336806121	0
7	4597	884.038048224519	0
7	4602	884.239169078014	0
7	4607	884.440289931509	0
7	4610	884.641410785004	0
7	4615	885.329275772198	0
7	4620	885.926136543189	0
7	4627	890.577082538236	0
7	4630	890.778203391731	0
7	4635	891.155007752879	0
7	4644	893.358074730907	0
7	4647	893.559195584402	0
7	4650	893.760316437897	0
7	4657	896.014879725291	0
7	4662	896.216000578786	0
7	4665	896.417121432281	0
7	4672	898.48502003276	0
7	4675	898.686140886255	0
7	4680	899.18464911382	0
7	4686	901.112370846417	0
7	4691	901.686263482168	0
7	4696	902.584784644423	0
7	4701	903.559788588716	0
7	4706	905.87342773734	0
7	4711	906.567428531462	0
7	4716	907.289811652615	0
7	4721	907.843995057184	0
7	4728	908.373043352863	0
7	4733	908.574164206358	0
7	4736	908.775285059853	0
7	4741	909.564695884978	0
7	4748	910.823232307334	0
7	4751	911.024353160829	0
7	4756	912.311875194057	0
7	4761	912.747526328157	0
7	4766	914.221216020634	0
7	4773	914.579929602908	0
7	4776	914.781050456403	0
7	4785	916.374275329574	0
7	4788	916.575396183069	0
7	4791	916.776517036564	0
7	4796	917.174804907557	0
7	4801	918.34017458638	0
7	4808	918.920764746281	0
7	4811	919.121885599776	0
7	4816	919.558478601153	0
7	4821	920.032998358888	0
7	4826	921.225516343943	0
7	4831	923.930845924938	0
7	4837	924.373208213227	0
7	4842	926.24211977741	0
7	4847	926.727701533624	0
7	4852	927.670268182933	0
7	4857	928.666971550852	0
7	4862	931.984746827602	0
7	4867	934.102533361904	0
7	4872	935.020326634158	0
7	4877	935.815427332601	0
7	4882	936.603207590528	0
7	4887	937.241578086884	0
7	4894	937.636857481727	0
7	4897	937.837978335222	0
7	4904	938.73690366354	0
7	4907	938.938024517035	0
7	4914	939.41688956646	0
7	4917	939.618010419955	0
7	4922	942.400040198526	0
7	4927	943.104147081021	0
7	4934	944.412742513868	0
7	4937	944.613863367363	0
7	4942	945.804289069594	0
7	4947	947.063549897664	0
7	4954	948.445446320126	0
7	4957	948.646567173621	0
7	4962	949.118575579606	0
7	4967	951.0669934774	0
7	4972	952.296353260777	0
7	4977	953.513427954694	0
7	4982	953.74149653326	0
7	4988	955.109193557994	0
7	4993	955.420545975497	0
7	5004	956.905343179202	0
7	5007	957.106464032697	0
7	5010	957.307584886192	0
7	5013	957.508705739687	0
7	5020	961.189709223947	0
7	5023	961.390830077442	0
7	5028	964.451828416288	0
7	5033	965.838660636949	0
7	5038	967.438046783042	0
7	5043	968.296708832108	0
7	5048	969.23191284406	0
7	5053	970.107627200594	0
7	5058	970.751414227948	0
7	5065	971.652495412072	0
7	5068	971.853616265567	0
7	5075	973.081355346158	0
7	5080	973.282476199653	0
7	5085	973.483597053148	0
7	5088	973.684717906643	0
7	5093	974.792536921285	0
7	5098	975.080764018096	0
7	5103	975.90076807978	0
7	5108	980.698819529437	0
7	5113	981.631802718151	0
7	5118	982.613570418354	0
7	5123	984.678307086708	0
7	5130	985.159919585444	0
7	5135	985.361040438939	0
7	5139	985.694272868587	0
7	5146	986.475257729339	0
7	5149	986.676378582834	0
7	5156	987.311378836782	0
7	5161	987.512499690277	0
7	5166	987.713620543772	0
7	5169	987.914741397267	0
7	5174	989.877277837242	0
7	5179	991.644767601561	0
7	5184	992.664702734398	0
7	5189	993.526315000737	0
7	5194	996.171289467542	0
7	5201	996.496045279781	0
7	5204	996.697166133276	0
7	5209	997.476128184529	0
7	5214	998.327238117574	0
7	5219	998.604024676625	0
7	5224	999.79483526712	0
8	16	2.975296716137	0.085790599756
8	21	3.176417569632	0.172448997698
8	53	9.650259273835	0.145441482986
8	58	9.85138012733	0.2766358868
8	61	10.052500980825	0.325420648124
8	86	12.901772457741	0.10437066311
8	98	15.594359614583	0.142589263672
8	103	15.795480468078	0.282463667797
8	108	15.996601321573	0.212913994791
8	113	16.197722175068	0.327220378967
8	116	16.398843028563	0.259933977578
8	138	20.204187222216	0.157585667573
8	141	20.405308075711	0.336715706015
8	146	20.606428929206	0.099803915774
8	242	39.710945108869	0.007578117065
8	247	39.912065962364	0.056452380953
8	257	41.102216874435	0.108177170369
8	282	44.254476343374	0.122149463387
8	287	44.455597196869	0.004346285026
8	313	50.787862030773	0.1908079685
8	358	60.591808458114	0.15267143677
8	368	61.339618326835	0.198927902273
8	403	68.255465033882	0.077864047577
8	428	72.285140841077	0.082268752076
8	499	89.724097406287	0.039193984499
8	559	102.3910477975	0.189729138758
8	579	107.294322704518	0.148621527899
8	610	111.351137499622	0.121939489547
8	630	116.46551587528	0.001236675127
8	645	117.123372247094	0.167106827824
8	660	118.376094203368	0.149382239936
8	665	118.577215056863	0.099579875282
8	670	118.778335910358	0.003996211304
8	705	123.407309670478	0.063411288323
8	710	123.608430523973	0.099746676199
8	745	128.964349091662	0.009898953417
8	786	135.674994267099	0.089392575045
8	801	142.139418133068	0.056667641844
8	816	144.070582494629	0.07897363344
8	826	145.847732784843	0.146862813912
8	846	152.193493934238	0.171468038854
8	851	152.394614787733	0.175829312917
8	858	152.595735641228	0.102399121187
8	861	152.796856494723	0.212839180123
8	910	167.669075545696	0.248987524584
8	912	167.870196399191	0.23999783843
8	927	172.657796858659	0.077034159977
8	957	177.699076301614	0.170465315913
8	982	184.78831441495	0.10073382183
8	997	186.580749210186	0.194770372546
8	1052	194.508323309735	0.131044314728
8	1059	194.841555739383	0.145571551964
8	1113	203.137832327909	0.001820206503
8	1153	209.727448269674	0.086651850121
8	1170	213.235549995171	0.149287695996
8	1173	213.436670848666	0.267211624675
8	1210	220.315648159724	0.18092795581
8	1234	225.877088581425	0.01065291279
8	1254	228.542948796105	0.135241359812
8	1264	230.02818940899	0.068041785218
8	1279	231.368407297499	0.087672352284
8	1284	231.569528150994	0.127606895713
8	1324	241.336328185738	0.094955398754
8	1329	241.537449039233	0.112645406555
8	1375	250.032708133573	0.199829509428
8	1380	250.233828987068	0.108725344549
8	1395	251.965770824011	0.179523991756
8	1415	255.674293367298	0.150756573106
8	1420	255.875414220793	0.019570522137
8	1435	261.618119929464	0.15308903461
8	1445	264.991087159185	0.048272804494
8	1490	269.625457224215	0.157587639119
8	1677	308.196332379788	0.078979107859
8	1702	315.117578142465	0.051621579825
8	1782	339.225708711329	0.193797534152
8	1787	339.426829564824	0.170545820653
8	1828	347.986116405085	0.170320137215
8	1873	354.071112501839	0.136544486417
8	1878	354.272233355334	0.145032070109
8	1908	361.335609477338	0.163138974174
8	1913	361.536730330833	0.085671207896
8	1918	361.737851184328	0.172212986275
8	1958	371.18804794739	0.188982022101
8	1965	371.521280377038	0.312281627553
8	2044	398.857746343097	0.130405501353
8	2081	407.272647139189	0.153694680364
8	2084	407.473767992684	0.205423033765
8	2125	416.579989013721	0.184522326743
8	2195	436.022340119577	0.052711115876
8	2205	436.819564572089	0.13141306676
8	2220	438.734400692421	0.103206031452
8	2240	441.208542040318	0.036782468756
8	2245	441.409662893813	0.046714635571
8	2250	441.610783747308	0.136997603596
8	2286	451.639342120689	0.19356452237
8	2291	451.840462974184	0.12078744945
8	2311	454.850930962796	0.048277069583
8	2326	456.505044994306	0.048923082828
8	2331	456.706165847801	0.156710632112
8	2371	466.694460203022	0.099931975922
8	2418	476.296918869887	0.18594381493
8	2437	482.264025524799	0.178574231481
8	2482	492.118671529829	0.181846321329
8	2522	501.002203393192	0.072716423124
8	2547	504.957850018271	0.052637892947
8	2569	507.782020909459	0.039144312777
8	2643	525.173689816731	0.096843320077
8	2700	538.720189840799	0.17141154675
8	2703	538.921310694294	0.322714352583
8	2720	542.754139336153	0.030541819708
8	2749	549.496083598492	0.114422880935
8	2779	556.929332961382	0.144030100334
8	2784	557.130453814877	0.035972795458
8	2814	562.919993084016	0.142164750129
8	2824	563.508914332924	0.198979791241
8	2829	563.710035186419	0.183665463127
8	2839	564.346364217829	0.140111562691
8	2859	566.709577115414	0.136088546668
8	2915	581.255029297981	0.072147945444
8	2920	581.456150151476	0.035554767489
8	2932	583.513779369803	0.164942481
8	2939	583.714900223298	0.2794313491
8	2942	583.916021076793	0.316636988086
8	2947	584.117141930288	0.422865394925
8	2950	584.318262783783	0.304084432354
8	2982	592.364387799548	0.174691207796
8	2985	592.565508653043	0.254805225192
8	3041	606.421720924237	0.172537852131
8	3056	608.397830202868	0.041298303426
8	3066	608.807644896105	0.162225700345
8	3071	609.0087657496	0.172060337159
8	3081	609.759329554547	0.125520422032
8	3086	609.960450408042	0.200254188624
8	3101	611.758141316933	0.183375061048
8	3126	614.088012601911	0.038593081708
8	3136	616.565458441735	0.135676059863
8	3212	632.902598106813	0.13060401517
8	3217	633.103718960308	0.195682583626
8	3237	637.2453988597	0.020138632645
8	3262	641.882879703559	0.165323481075
8	3267	642.084000557054	0.026229527062
8	3272	642.285121410549	0.044786413959
8	3307	646.33355952906	0.071634944951
8	3324	649.648955671263	0.014175105173
8	3353	658.749133892027	0.106097308201
8	3368	661.840016094048	0.188510163951
8	3373	662.041136947543	0.027585492515
8	3400	665.916425193153	0.179659353613
8	3403	666.117546046648	0.283903226426
8	3413	666.761877408151	0.033676269008
8	3468	680.043018002263	0.129403030223
8	3477	680.376250431911	0.243797354135
8	3479	680.577371285406	0.270670272616
8	3499	684.455669975162	0.132018537068
8	3564	698.376193939784	0.103502283046
8	3606	704.126771125552	0.094216117345
8	3609	704.327891979047	0.280752674239
8	3614	704.529012832542	0.009252232058
8	3619	704.730133686037	0.15498166909
8	3635	705.753885037205	0.198748393124
8	3655	707.120673873646	0.057884093198
8	3665	707.732943300088	0.098625840071
8	3685	713.399950145727	0.105406410074
8	3695	713.806840959112	0.16730963985
8	3715	715.060224455956	0.099010430051
8	3735	723.29412717382	0.088927082824
8	3777	730.20636425178	0.18512804221
8	3833	737.942369329803	0.154672188394
8	3838	738.143490183298	0.310452162545
8	3841	738.344611036793	0.241002563816
8	3928	758.044597864451	0.282693126836
8	3937	758.791847791678	0.099791822899
8	3962	765.737638130345	0.200180980119
8	3987	768.927049923451	0.02607423214
8	4019	773.956340859718	0.134504418399
8	4022	774.157461713213	0.2587175995
8	4029	774.358582566708	0.076747619856
8	4032	774.559703420203	0.231283202737
8	4042	776.335820500571	0.093314145316
8	4067	780.322545003348	0.127887276879
8	4088	783.485878186217	0.048502809562
8	4138	795.129431540269	0.066185597313
8	4203	808.144181447517	0.181826630544
8	4218	808.811236821977	0.083710685759
8	4223	809.012357675472	0.042019656077
8	4249	814.908878718758	0.075236017231
8	4254	815.109999572253	0.167100048962
8	4259	815.311120425748	0.194079841346
8	4289	821.923561432034	0.021323427854
8	4309	825.057726625083	0.169966072211
8	4319	826.252977473894	0.176620542731
8	4349	834.826178034488	0.036696241221
8	4354	835.027298887983	0.097562292602
8	4390	845.140044062162	0.153187573605
8	4405	848.332399493474	0.149252134451
8	4415	852.002462757665	0.106379996654
8	4430	854.614361911129	0.172846704739
8	4500	867.331299383533	0.084141483414
8	4505	867.532420237028	0.045434039665
8	4551	877.460813447443	0.070818901129
8	4566	881.324631485089	0.194321863294
8	4571	881.525752338584	0.112904418879
8	4596	884.038048224519	0.024134881719
8	4601	884.239169078014	0.150591571692
8	4606	884.440289931509	0.139103978873
8	4626	890.577082538236	0.076903446229
8	4643	893.358074730907	0.098280456492
8	4646	893.559195584402	0.273369091385
8	4656	896.014879725291	0.167022735912
8	4661	896.216000578786	0.13445142066
8	4671	898.48502003276	0.196943101029
8	4727	908.373043352863	0.001113146284
8	4732	908.574164206358	0.17096912629
8	4747	910.823232307334	0.011220044282
8	4772	914.579929602908	0.145722871786
8	4784	916.374275329574	0.200978667916
8	4787	916.575396183069	0.289724893167
8	4807	918.920764746281	0.074601485846
8	4893	937.636857481727	0.095682184039
8	4903	938.73690366354	0.030489512806
8	4913	939.41688956646	0.072577044501
8	4933	944.412742513868	0.097625114304
8	4953	948.445446320126	0.088991940183
8	5003	956.905343179202	0.142167655729
8	5006	957.106464032697	0.33099461908
8	5009	957.307584886192	0.496723160742
8	5019	961.189709223947	0.200627776627
8	5064	971.652495412072	0.058621381564
8	5074	973.081355346158	0.038800075947
8	5079	973.282476199653	0.17491541908
8	5084	973.483597053148	0.113533340581
8	5129	985.159919585444	0.079550506914
8	5136	985.493152015092	0.169678672519
8	5145	986.475257729339	0.093700051083
8	5155	987.311378836782	0.048333640377
8	5160	987.512499690277	0.036048716738
8	5165	987.713620543772	0.036763297623
8	5200	996.496045279781	0.153479788149

