version 2
run General-334-20240201-11:04:27-40057
attr configname General
attr datetime 20240201-11:04:27
attr experiment General
attr inifile main.ini
attr iterationvars "$0=1.2, $1=3.5, $2=50"
attr iterationvarsf 1.2,3.5,50-
attr measurement "$0=1.2, $1=3.5, $2=50"
attr network Rete
attr processid 40057
attr repetition 14
attr replication #14
attr resultdir results
attr runnumber 334
attr seedset 334
param Rete.lambda 1.2
param Rete.a 0.3s
param Rete.b 3.5s
param Rete.c 0.1s
param Rete.d 0.3s
param Rete.mu 3.0
param Rete.source2.interArrivalTime exponential(1s/lambda)
param Rete.source2.jobServiceTime exponential(1s/mu)
param Rete.source2.deadline uniform(a,b)
param Rete.server2.j 50
param Rete.server2.V uniform(c,d)

vector 0 Rete.passiveQueue queueLength:vector ETV
attr interpolationmode sample-hold
attr title "queue length, vector"
vector 1 Rete.sink lifeTime:vector ETV
attr interpolationmode none
attr title "lifetime of arrived jobs, vector"
attr unit s
vector 2 Rete.sink totalQueueingTime:vector ETV
attr interpolationmode none
attr title "the total time spent in queues by arrived jobs, vector"
attr unit s
vector 3 Rete.sink queuesVisited:vector ETV
attr interpolationmode none
attr title "the total number of queues visited by arrived jobs, vector"
vector 4 Rete.sink totalServiceTime:vector ETV
attr interpolationmode none
attr title "the total time spent  by arrived jobs, vector"
attr unit s
vector 5 Rete.sink totalDelayTime:vector ETV
attr interpolationmode none
attr title "the total time spent in delay nodes by arrived jobs, vector"
attr unit s
vector 6 Rete.sink delaysVisited:vector ETV
attr interpolationmode none
attr title "the total number of delays visited by arrived jobs, vector"
vector 7 Rete.sink generation:vector ETV
attr interpolationmode none
attr title "the generation of the arrived jobs, vector"
vector 8 Rete.passiveQueue queueingTime:vector ETV
attr interpolationmode none
attr title "queueing time at dequeue, vector"
attr unit s
0	0	0	0
0	115	18.477251275527	1
0	116	18.484660177404	0
0	371	57.203326592927	1
0	372	57.209953261826	0
0	503	79.530170163855	1
0	504	79.584187265389	0
0	923	154.329472678222	1
0	924	154.338000085593	0
0	963	159.551535568933	1
0	964	159.552440954832	0
0	1005	165.348620999805	1
0	1006	165.485964207608	0
0	1256	208.20559977908	1
0	1257	208.319296078358	0
0	1507	255.489681479979	1
0	1508	255.587941711638	0
0	1716	291.133726087986	1
0	1717	291.140467070216	0
0	1952	332.747720971351	1
0	1953	332.756475320891	0
0	2248	382.1427443672	1
0	2249	382.144101296438	0
0	2511	432.613081353327	1
0	2512	432.819380535521	0
0	3013	509.779186172233	1
0	3014	509.812192462579	0
0	4261	705.942570523498	1
0	4262	705.947142719639	0
0	4412	739.949952724517	1
0	4413	739.956796397638	0
0	5346	897.60913421902	1
0	5347	897.618412125276	0
0	5356	898.352332894747	1
0	5357	898.354568497013	0
0	5523	924.202355819367	1
0	5524	924.282125936394	0
0	5642	945.473945418714	1
0	5643	945.479429046697	0
0	5774	971.299842287481	1
0	5775	971.427512516025	0
1	5	0.237664841586	0.011008214749
1	10	0.348243769404	0.011008214749
1	15	0.726309862282	0.011008214749
1	20	0.882135003608	0.011008214749
1	25	1.221429170512	0.011008214749
1	30	1.507073506473	0.011008214749
1	35	2.501000076678	0.011008214749
1	40	3.944224595232	0.011008214749
1	45	3.988797416909	0.011008214749
1	50	5.327239238483	0.011008214749
1	55	5.449493716991	0.011008214749
1	60	5.543363311018	0.011008214749
1	65	7.558627960766	0.011008214749
1	70	9.085524132229	0.011008214749
1	75	9.742064591208	0.011008214749
1	80	10.498069571906	0.011008214749
1	85	11.60412678328	0.011008214749
1	90	13.046653450731	0.011008214749
1	95	13.781436619271	0.011008214749
1	100	14.564090635137	0.011008214749
1	105	15.864709336655	0.011008214749
1	110	17.060746954732	0.011008214749
1	117	18.484660177404	0.011008214749
1	120	18.495668392153	0.018417116626
1	125	19.386539160776	0.011008214749
1	130	20.002700291906	0.011008214749
1	135	20.225342849685	0.011008214749
1	140	20.292602526954	0.011008214749
1	145	20.409271077182	0.011008214749
1	150	21.03206961631	0.011008214749
1	155	21.339967453624	0.011008214749
1	160	22.431565909247	0.011008214749
1	165	22.464520660914	0.011008214749
1	170	23.246220594325	0.011008214749
1	175	23.572954081683	0.011008214749
1	180	24.195462504016	0.011008214749
1	185	25.084883962573	0.011008214749
1	190	27.728797013134	0.011008214749
1	195	28.043270760285	0.011008214749
1	200	28.356109967781	0.011008214749
1	205	29.477078934745	0.011008214749
1	210	30.174020015133	0.011008214749
1	215	30.38459748605	0.011008214749
1	220	30.411537740515	0.011008214749
1	225	30.926040094832	0.011008214749
1	230	31.559324070686	0.011008214749
1	235	31.85630677589	0.011008214749
1	240	31.918694843608	0.011008214749
1	245	33.228883535191	0.011008214749
1	250	33.522284238833	0.011008214749
1	256	35.291632036479	0.011008214749
1	261	36.146861222927	0.011008214749
1	266	37.453395086099	0.011008214749
1	271	37.657749280766	0.011008214749
1	276	41.364764490437	0.011008214749
1	281	41.893927045583	0.011008214749
1	286	42.071396885646	0.011008214749
1	291	44.275522543659	0.011008214749
1	296	45.256052215215	0.011008214749
1	301	45.799987819557	0.011008214749
1	306	45.910999036535	0.011008214749
1	311	48.460388439012	0.011008214749
1	316	50.224166372428	0.011008214749
1	321	50.70613431269	0.011008214749
1	326	51.238879555029	0.011008214749
1	331	52.447323347895	0.011008214749
1	336	53.341971519281	0.011008214749
1	341	53.415361582951	0.011008214749
1	346	53.446678432128	0.011008214749
1	351	53.640178591616	0.011008214749
1	356	55.119677157393	0.011008214749
1	361	55.393514280609	0.011008214749
1	366	57.075148058117	0.011008214749
1	373	57.209953261826	0.011008214749
1	376	57.220961476575	0.017634883648
1	381	59.542184078178	0.011008214749
1	386	60.162390318215	0.011008214749
1	391	61.055944631825	0.011008214749
1	396	61.07355573799	0.011008214749
1	401	61.18133426027	0.011008214749
1	406	61.998655917292	0.011008214749
1	411	62.048448264625	0.011008214749
1	416	63.834891592316	0.011008214749
1	421	63.878584552554	0.011008214749
1	426	64.487167070828	0.011008214749
1	431	66.397962626698	0.011008214749
1	436	66.448809942337	0.011008214749
1	441	69.674688877344	0.011008214749
1	446	70.21319107793	0.011008214749
1	451	70.35563960201	0.011008214749
1	456	71.096634163422	0.011008214749
1	461	71.298357095394	0.011008214749
1	466	73.721454926952	0.011008214749
1	471	73.936377723143	0.011008214749
1	476	76.872449731991	0.011008214749
1	481	78.063222219614	0.011008214749
1	486	78.324365299892	0.011008214749
1	491	78.769521106391	0.011008214749
1	496	78.971464380001	0.011008214749
1	501	79.35852090595	0.011008214749
1	507	79.595195480138	0.065025316283
1	512	79.802693062091	0.011008214749
1	517	79.904618960581	0.011008214749
1	522	83.514571368149	0.011008214749
1	527	86.902307748637	0.011008214749
1	532	86.997726698131	0.011008214749
1	537	88.836653743354	0.011008214749
1	542	89.72487348972	0.011008214749
1	547	90.458765371436	0.011008214749
1	552	90.951395303555	0.011008214749
1	557	91.317235153341	0.011008214749
1	562	94.843971711256	0.011008214749
1	567	94.866626427285	0.011008214749
1	572	96.334637242492	0.011008214749
1	577	97.066118557301	0.011008214749
1	582	97.260786511569	0.011008214749
1	587	99.154292458173	0.011008214749
1	592	99.736186354128	0.011008214749
1	597	100.199136538476	0.011008214749
1	602	100.360280022773	0.011008214749
1	607	101.154195168054	0.011008214749
1	612	103.152924434163	0.011008214749
1	617	103.21197065217	0.011008214749
1	622	103.282084855536	0.011008214749
1	627	104.050230265739	0.011008214749
1	632	106.259630361545	0.011008214749
1	637	108.37552246323	0.011008214749
1	642	108.398397868092	0.011008214749
1	647	108.812007690214	0.011008214749
1	652	108.914933530141	0.011008214749
1	657	109.635844932095	0.011008214749
1	662	110.535456631305	0.011008214749
1	667	111.138391266194	0.011008214749
1	672	111.32821714356	0.011008214749
1	677	111.83798185654	0.011008214749
1	682	112.68192486204	0.011008214749
1	687	112.892865317237	0.011008214749
1	692	113.194932594548	0.011008214749
1	697	113.560871158932	0.011008214749
1	702	115.961369940669	0.011008214749
1	707	116.410278353548	0.011008214749
1	712	117.395416441696	0.011008214749
1	717	118.262519991989	0.011008214749
1	722	118.964801801201	0.011008214749
1	727	119.258100299291	0.011008214749
1	732	121.072544164202	0.011008214749
1	737	122.728901936213	0.011008214749
1	742	125.163801185001	0.011008214749
1	747	125.668408613199	0.011008214749
1	752	126.649246098534	0.011008214749
1	758	126.991162548126	0.011008214749
1	763	127.404722106638	0.011008214749
1	768	127.917862806635	0.011008214749
1	773	128.881353525949	0.011008214749
1	778	129.283221583147	0.011008214749
1	783	130.061050286239	0.011008214749
1	788	130.368689032035	0.011008214749
1	793	130.510306853672	0.011008214749
1	798	130.58678020091	0.011008214749
1	803	131.328180180727	0.011008214749
1	808	131.391525029772	0.011008214749
1	813	138.143105167704	0.011008214749
1	818	140.007214266863	0.011008214749
1	823	140.819223845264	0.011008214749
1	828	141.047437875104	0.011008214749
1	833	141.435290292236	0.011008214749
1	838	141.974596089512	0.011008214749
1	843	142.078926337856	0.011008214749
1	848	142.784386682692	0.011008214749
1	853	143.358617771624	0.011008214749
1	858	144.576339726677	0.011008214749
1	863	146.051669583368	0.011008214749
1	868	146.224870292352	0.011008214749
1	873	146.952636195668	0.011008214749
1	878	147.347156718163	0.011008214749
1	883	148.338884503339	0.011008214749
1	888	149.155165422726	0.011008214749
1	893	149.827220853929	0.011008214749
1	898	150.35541625655	0.011008214749
1	903	151.206456140653	0.011008214749
1	908	151.762329463368	0.011008214749
1	913	152.058137139043	0.011008214749
1	918	154.176527318765	0.011008214749
1	925	154.338000085593	0.011008214749
1	928	154.349008300342	0.01953562212
1	933	154.370271248755	0.011008214749
1	938	155.273163996827	0.011008214749
1	943	156.351753417822	0.011008214749
1	948	156.888801048237	0.011008214749
1	953	158.178413506631	0.011008214749
1	958	158.371458353862	0.011008214749
1	965	159.552440954832	0.011008214749
1	968	159.563449169581	0.011913600648
1	973	161.028169381687	0.011008214749
1	978	161.773746736593	0.011008214749
1	983	162.316667698738	0.011008214749
1	988	162.48980257691	0.011008214749
1	993	162.771663368956	0.011008214749
1	998	163.744087628542	0.011008214749
1	1003	165.260297848169	0.011008214749
1	1009	165.496972422357	0.148351422552
1	1014	165.76063912575	0.011008214749
1	1019	170.528918442032	0.011008214749
1	1024	171.438264598395	0.011008214749
1	1029	172.017520679881	0.011008214749
1	1034	173.531351899924	0.011008214749
1	1039	174.672044593991	0.011008214749
1	1044	174.916710424415	0.011008214749
1	1049	175.272421890302	0.011008214749
1	1054	175.425157457897	0.011008214749
1	1059	175.76281667698	0.011008214749
1	1064	176.759152309207	0.011008214749
1	1069	178.053863496064	0.011008214749
1	1074	178.53899905643	0.011008214749
1	1079	180.763701423402	0.011008214749
1	1084	180.781675175556	0.011008214749
1	1089	181.039287041535	0.011008214749
1	1094	181.655646725603	0.011008214749
1	1099	182.290871352759	0.011008214749
1	1104	182.814019206417	0.011008214749
1	1109	183.608173904445	0.011008214749
1	1114	183.760429256145	0.011008214749
1	1119	183.858833766838	0.011008214749
1	1124	185.662170878903	0.011008214749
1	1129	186.493459071863	0.011008214749
1	1134	187.107874019343	0.011008214749
1	1139	187.749741651334	0.011008214749
1	1144	187.913896193448	0.011008214749
1	1149	188.100607165738	0.011008214749
1	1154	189.23184100912	0.011008214749
1	1159	189.536722890656	0.011008214749
1	1164	190.744065548678	0.011008214749
1	1169	191.196813198479	0.011008214749
1	1174	191.626984509986	0.011008214749
1	1179	192.065945348569	0.011008214749
1	1184	192.662303344201	0.011008214749
1	1189	193.016088053811	0.011008214749
1	1194	196.227130644128	0.011008214749
1	1199	196.543941828888	0.011008214749
1	1204	198.559128949443	0.011008214749
1	1209	198.605526588088	0.011008214749
1	1214	199.275763246775	0.011008214749
1	1219	201.185746874378	0.011008214749
1	1224	201.672934071476	0.011008214749
1	1229	202.428298430429	0.011008214749
1	1234	203.131408958864	0.011008214749
1	1239	203.149970990021	0.011008214749
1	1244	205.206740004068	0.011008214749
1	1249	208.01823597609	0.011008214749
1	1254	208.093629718919	0.011008214749
1	1260	208.330304293107	0.124704514027
1	1265	208.530269659765	0.011008214749
1	1270	209.30105267859	0.011008214749
1	1275	209.604130974	0.011008214749
1	1280	210.531028072927	0.011008214749
1	1285	211.42382449893	0.011008214749
1	1290	211.882850035582	0.011008214749
1	1295	211.906514837847	0.011008214749
1	1300	212.61913160686	0.011008214749
1	1305	212.657948385695	0.011008214749
1	1310	213.375725571904	0.011008214749
1	1315	213.643614455986	0.011008214749
1	1320	213.756185276848	0.011008214749
1	1325	214.105190500999	0.011008214749
1	1330	215.055789250039	0.011008214749
1	1335	220.474087750699	0.011008214749
1	1340	221.457043658001	0.011008214749
1	1345	222.42817147442	0.011008214749
1	1350	222.617693709104	0.011008214749
1	1355	222.801561202322	0.011008214749
1	1360	223.882847353041	0.011008214749
1	1365	224.271331256165	0.011008214749
1	1370	228.152499520415	0.011008214749
1	1375	229.902922761227	0.011008214749
1	1380	232.289740320289	0.011008214749
1	1385	232.551101011096	0.011008214749
1	1390	232.720768992599	0.011008214749
1	1395	232.929062205256	0.011008214749
1	1400	233.029949275145	0.011008214749
1	1405	233.682737846779	0.011008214749
1	1410	235.471829449665	0.011008214749
1	1415	242.224497737912	0.011008214749
1	1420	242.29702054875	0.011008214749
1	1425	243.918883342486	0.011008214749
1	1430	244.524446184698	0.011008214749
1	1435	244.929804027549	0.011008214749
1	1440	245.206365800499	0.011008214749
1	1445	246.299496318343	0.011008214749
1	1450	246.861445579994	0.011008214749
1	1455	247.252379281333	0.011008214749
1	1460	247.409743446608	0.011008214749
1	1465	247.853153072456	0.011008214749
1	1470	248.111878347121	0.011008214749
1	1475	248.694101500355	0.011008214749
1	1480	249.714677245942	0.011008214749
1	1485	251.983299438958	0.011008214749
1	1490	252.066842259623	0.011008214749
1	1495	253.262331167686	0.011008214749
1	1500	255.069353801179	0.011008214749
1	1505	255.362275352199	0.011008214749
1	1511	255.598949926387	0.109268446408
1	1516	257.736043456966	0.011008214749
1	1521	259.145406835098	0.011008214749
1	1526	259.9516391817	0.011008214749
1	1531	260.010691914067	0.011008214749
1	1536	260.871123976772	0.011008214749
1	1541	261.487968559515	0.011008214749
1	1546	261.632738996724	0.011008214749
1	1551	262.38544724496	0.011008214749
1	1556	263.827268079665	0.011008214749
1	1561	266.533854440728	0.011008214749
1	1566	266.673171195347	0.011008214749
1	1571	266.998681081348	0.011008214749
1	1576	267.128961375506	0.011008214749
1	1581	267.373158572859	0.011008214749
1	1586	267.705351416931	0.011008214749
1	1591	268.46825609252	0.011008214749
1	1596	269.639426133027	0.011008214749
1	1601	269.796263646223	0.011008214749
1	1606	270.77282180675	0.011008214749
1	1611	273.843695277617	0.011008214749
1	1616	273.903457311872	0.011008214749
1	1621	273.982174929311	0.011008214749
1	1626	274.650271167611	0.011008214749
1	1631	275.312176800903	0.011008214749
1	1636	275.335823775397	0.011008214749
1	1641	275.911612836108	0.011008214749
1	1646	277.71567745629	0.011008214749
1	1651	278.063629819827	0.011008214749
1	1656	278.487725479246	0.011008214749
1	1661	278.84040415389	0.011008214749
1	1666	279.101619441372	0.011008214749
1	1671	279.950462151217	0.011008214749
1	1676	280.322516852568	0.011008214749
1	1681	281.790947241327	0.011008214749
1	1686	283.03906965314	0.011008214749
1	1691	285.009669586973	0.011008214749
1	1696	286.20657723794	0.011008214749
1	1701	287.141751213465	0.011008214749
1	1706	287.684022097908	0.011008214749
1	1711	290.958443315958	0.011008214749
1	1718	291.140467070216	0.011008214749
1	1721	291.151475284965	0.017749196979
1	1726	291.66529584466	0.011008214749
1	1731	291.742731444797	0.011008214749
1	1736	291.857386700889	0.011008214749
1	1741	292.382164390266	0.011008214749
1	1746	292.98200864842	0.011008214749
1	1751	293.755261552481	0.011008214749
1	1756	294.782344030134	0.011008214749
1	1762	295.240341864424	0.011008214749
1	1767	296.029923275544	0.011008214749
1	1772	296.118084029154	0.011008214749
1	1777	296.378968103789	0.011008214749
1	1782	300.508514074933	0.011008214749
1	1787	302.533252090202	0.011008214749
1	1792	302.94096496863	0.011008214749
1	1797	303.208804221841	0.011008214749
1	1802	303.228324915046	0.011008214749
1	1807	304.252926795661	0.011008214749
1	1812	305.868211224469	0.011008214749
1	1817	306.589301938586	0.011008214749
1	1822	307.219240253894	0.011008214749
1	1827	307.365765672956	0.011008214749
1	1832	308.434959436382	0.011008214749
1	1837	309.187671294143	0.011008214749
1	1842	309.246250338297	0.011008214749
1	1847	309.343758483934	0.011008214749
1	1852	311.031339288212	0.011008214749
1	1857	313.313344266571	0.011008214749
1	1862	314.117542998984	0.011008214749
1	1867	316.572323056686	0.011008214749
1	1872	316.71122252893	0.011008214749
1	1877	316.997842759697	0.011008214749
1	1882	317.317580001665	0.011008214749
1	1887	318.938921367849	0.011008214749
1	1892	319.703961585909	0.011008214749
1	1897	319.768138978533	0.011008214749
1	1902	321.308417515155	0.011008214749
1	1907	321.437400282372	0.011008214749
1	1912	322.31025509386	0.011008214749
1	1917	323.400786773446	0.011008214749
1	1922	323.628051242584	0.011008214749
1	1927	327.024680303332	0.011008214749
1	1932	328.276393028787	0.011008214749
1	1937	328.871227836961	0.011008214749
1	1942	329.932607531724	0.011008214749
1	1947	331.074655537248	0.011008214749
1	1954	332.756475320891	0.011008214749
1	1957	332.76748353564	0.019762564289
1	1962	333.465540765117	0.011008214749
1	1967	334.031521193367	0.011008214749
1	1972	334.067275703363	0.011008214749
1	1977	334.726793289875	0.011008214749
1	1982	334.986393634795	0.011008214749
1	1987	335.232968093709	0.011008214749
1	1992	336.133080291043	0.011008214749
1	1997	336.193686466645	0.011008214749
1	2002	340.153542140432	0.011008214749
1	2007	340.36373123178	0.011008214749
1	2013	341.147293118392	0.011008214749
1	2018	341.493181040871	0.011008214749
1	2023	341.665300488157	0.011008214749
1	2028	342.799978152061	0.011008214749
1	2033	343.111253917998	0.011008214749
1	2038	343.290943060321	0.011008214749
1	2043	343.991277263546	0.011008214749
1	2048	346.098770674213	0.011008214749
1	2053	346.160513130618	0.011008214749
1	2058	347.036429037245	0.011008214749
1	2063	347.28720625712	0.011008214749
1	2068	348.321766196932	0.011008214749
1	2073	348.640062314653	0.011008214749
1	2078	348.686599681862	0.011008214749
1	2083	350.706890706201	0.011008214749
1	2088	351.313440116112	0.011008214749
1	2093	352.429772597325	0.011008214749
1	2098	352.926563615033	0.011008214749
1	2103	353.067043225054	0.011008214749
1	2108	353.716586190437	0.011008214749
1	2113	353.729116914163	0.011008214749
1	2118	354.841343818126	0.011008214749
1	2123	356.87474194915	0.011008214749
1	2128	357.044331105467	0.011008214749
1	2133	357.492683627828	0.011008214749
1	2138	357.722132802991	0.011008214749
1	2143	361.87052204619	0.011008214749
1	2148	362.105393529261	0.011008214749
1	2153	363.568799068968	0.011008214749
1	2158	364.398154675604	0.011008214749
1	2163	364.753271680841	0.011008214749
1	2168	365.653037833536	0.011008214749
1	2173	366.316429216267	0.011008214749
1	2178	366.780197005523	0.011008214749
1	2183	367.459530692084	0.011008214749
1	2188	367.538132450269	0.011008214749
1	2193	369.365713695467	0.011008214749
1	2198	371.246798062824	0.011008214749
1	2203	373.00900187301	0.011008214749
1	2208	374.112499958322	0.011008214749
1	2213	374.504751938672	0.011008214749
1	2218	375.213026723678	0.011008214749
1	2223	376.451578988161	0.011008214749
1	2228	377.274009792283	0.011008214749
1	2233	381.351595878729	0.011008214749
1	2238	381.460601185668	0.011008214749
1	2243	381.540354870706	0.011008214749
1	2250	382.144101296438	0.011008214749
1	2253	382.155109511187	0.012365143987
1	2258	385.592766423675	0.011008214749
1	2264	386.115212231292	0.011008214749
1	2269	386.744158897534	0.011008214749
1	2274	387.109740799114	0.011008214749
1	2279	387.833886218828	0.011008214749
1	2284	388.364658197314	0.011008214749
1	2289	389.956510465772	0.011008214749
1	2294	390.79392982604	0.011008214749
1	2299	392.404528992558	0.011008214749
1	2304	392.852091771675	0.011008214749
1	2309	393.512291330374	0.011008214749
1	2314	393.807648467433	0.011008214749
1	2319	393.959690862887	0.011008214749
1	2324	394.010063319256	0.011008214749
1	2329	394.418884942546	0.011008214749
1	2334	394.533882741162	0.011008214749
1	2339	395.274721744799	0.011008214749
1	2344	395.539692249531	0.011008214749
1	2349	397.114357332752	0.011008214749
1	2354	398.238003298619	0.011008214749
1	2359	398.825960001417	0.011008214749
1	2364	400.166064062534	0.011008214749
1	2369	400.190284899137	0.011008214749
1	2374	400.857848170113	0.011008214749
1	2379	402.779408390745	0.011008214749
1	2384	403.61388977675	0.011008214749
1	2389	404.160148011372	0.011008214749
1	2394	407.731046892661	0.011008214749
1	2399	409.79556659191	0.011008214749
1	2404	411.117171206332	0.011008214749
1	2409	411.433356983603	0.011008214749
1	2414	412.226353594609	0.011008214749
1	2419	412.285631965211	0.011008214749
1	2424	414.014952036365	0.011008214749
1	2429	414.73168953513	0.011008214749
1	2434	415.819674512002	0.011008214749
1	2439	417.304604308132	0.011008214749
1	2444	417.779966045036	0.011008214749
1	2449	417.951262956966	0.011008214749
1	2454	419.162149040304	0.011008214749
1	2459	419.799394293155	0.011008214749
1	2464	420.502142996708	0.011008214749
1	2469	420.988516196383	0.011008214749
1	2474	422.849122835034	0.011008214749
1	2479	426.209622159042	0.011008214749
1	2484	426.904269751157	0.011008214749
1	2489	426.937392837063	0.011008214749
1	2494	429.893289960062	0.011008214749
1	2499	430.029891631919	0.011008214749
1	2504	432.228061770369	0.011008214749
1	2509	432.593714176082	0.011008214749
1	2515	432.83038875027	0.217307396943
1	2520	433.01632414835	0.011008214749
1	2525	433.069399693294	0.011008214749
1	2530	433.256098583145	0.011008214749
1	2535	433.297644073153	0.011008214749
1	2540	435.417139000828	0.011008214749
1	2545	438.904346548062	0.011008214749
1	2550	439.254803479065	0.011008214749
1	2555	440.093466650786	0.011008214749
1	2560	442.617220284993	0.011008214749
1	2565	443.145671568294	0.011008214749
1	2570	444.271370860498	0.011008214749
1	2575	444.576832087134	0.011008214749
1	2580	445.310239650773	0.011008214749
1	2585	446.020764393877	0.011008214749
1	2590	448.42129952863	0.011008214749
1	2595	448.671089501983	0.011008214749
1	2600	448.765255900492	0.011008214749
1	2605	448.83466346427	0.011008214749
1	2610	449.038628090466	0.011008214749
1	2615	449.121470779367	0.011008214749
1	2620	449.442898307556	0.011008214749
1	2625	450.849495323918	0.011008214749
1	2630	451.254834175564	0.011008214749
1	2635	451.812485688921	0.011008214749
1	2640	451.843837495844	0.011008214749
1	2645	451.989628983422	0.011008214749
1	2650	453.516087969233	0.011008214749
1	2655	454.154804048404	0.011008214749
1	2660	455.924626046408	0.011008214749
1	2665	456.458626667749	0.011008214749
1	2670	456.551898664821	0.011008214749
1	2675	457.484800163474	0.011008214749
1	2680	460.348492019252	0.011008214749
1	2685	461.765149218886	0.011008214749
1	2690	463.076945835984	0.011008214749
1	2695	463.368383725768	0.011008214749
1	2700	464.507556693758	0.011008214749
1	2705	465.386042712157	0.011008214749
1	2710	466.151899532439	0.011008214749
1	2715	467.252338978919	0.011008214749
1	2720	467.64328838198	0.011008214749
1	2725	467.945842048162	0.011008214749
1	2730	469.469767094741	0.011008214749
1	2735	470.260380476605	0.011008214749
1	2740	471.59600791731	0.011008214749
1	2745	471.614977146277	0.011008214749
1	2750	471.977631969281	0.011008214749
1	2755	472.902464282071	0.011008214749
1	2760	472.976855831637	0.011008214749
1	2766	473.272406790483	0.011008214749
1	2771	473.927007405081	0.011008214749
1	2776	475.62992337798	0.011008214749
1	2781	475.901636717954	0.011008214749
1	2786	477.318074948925	0.011008214749
1	2791	478.384351129921	0.011008214749
1	2796	482.049983643762	0.011008214749
1	2801	484.237443680769	0.011008214749
1	2806	485.059273677089	0.011008214749
1	2811	485.154516530925	0.011008214749
1	2816	485.586538448991	0.011008214749
1	2821	485.90310943542	0.011008214749
1	2826	486.037956948371	0.011008214749
1	2831	486.080318121068	0.011008214749
1	2836	486.543226713338	0.011008214749
1	2841	487.011214309108	0.011008214749
1	2846	487.109088497981	0.011008214749
1	2851	487.132956049907	0.011008214749
1	2856	488.491588407181	0.011008214749
1	2861	489.504398539391	0.011008214749
1	2866	489.85157384529	0.011008214749
1	2871	490.154694204398	0.011008214749
1	2876	491.029236983575	0.011008214749
1	2881	492.997736226692	0.011008214749
1	2886	495.458514391232	0.011008214749
1	2891	496.253991258864	0.011008214749
1	2896	496.721655381033	0.011008214749
1	2901	497.271787442843	0.011008214749
1	2906	497.36121456177	0.011008214749
1	2911	497.479943058327	0.011008214749
1	2916	497.565056202343	0.011008214749
1	2921	497.577406948341	0.011008214749
1	2926	498.346924661963	0.011008214749
1	2931	498.500614209638	0.011008214749
1	2936	500.400486269435	0.011008214749
1	2941	501.197947506543	0.011008214749
1	2946	502.164140981157	0.011008214749
1	2951	502.426907826607	0.011008214749
1	2956	504.280732449166	0.011008214749
1	2961	505.19219981015	0.011008214749
1	2966	505.248505232427	0.011008214749
1	2971	505.476306093172	0.011008214749
1	2976	506.131429321567	0.011008214749
1	2981	507.055330605068	0.011008214749
1	2986	508.010393963703	0.011008214749
1	2991	508.16165640648	0.011008214749
1	2996	508.274730480194	0.011008214749
1	3001	508.564661323493	0.011008214749
1	3006	509.40881942156	0.011008214749
1	3011	509.58652610314	0.011008214749
1	3017	509.823200677328	0.044014505095
1	3022	510.408882230025	0.011008214749
1	3027	511.566676277558	0.011008214749
1	3032	511.710665332701	0.011008214749
1	3037	511.85651234307	0.011008214749
1	3042	512.000726243188	0.011008214749
1	3047	512.460668320817	0.011008214749
1	3052	512.59765628299	0.011008214749
1	3057	513.108859308552	0.011008214749
1	3062	513.534367070515	0.011008214749
1	3067	515.786861213929	0.011008214749
1	3072	516.908644947302	0.011008214749
1	3077	518.260939352254	0.011008214749
1	3082	518.482556367687	0.011008214749
1	3087	518.518834419834	0.011008214749
1	3092	518.545806449613	0.011008214749
1	3097	519.766922012564	0.011008214749
1	3102	520.226928597476	0.011008214749
1	3107	524.449843428326	0.011008214749
1	3112	524.605177854883	0.011008214749
1	3117	525.620609104642	0.011008214749
1	3122	525.723035429744	0.011008214749
1	3127	526.093900998951	0.011008214749
1	3132	526.343262676342	0.011008214749
1	3137	526.60005066799	0.011008214749
1	3142	527.080053592763	0.011008214749
1	3147	527.34816265902	0.011008214749
1	3152	527.462464615429	0.011008214749
1	3157	528.441831039621	0.011008214749
1	3162	528.823713237093	0.011008214749
1	3167	529.489396379749	0.011008214749
1	3172	529.667662266155	0.011008214749
1	3177	530.071523377333	0.011008214749
1	3182	530.718282503119	0.011008214749
1	3187	532.403570341259	0.011008214749
1	3192	533.634950849229	0.011008214749
1	3197	533.687933364236	0.011008214749
1	3202	534.613834189695	0.011008214749
1	3207	534.88278989242	0.011008214749
1	3212	535.1607362033	0.011008214749
1	3217	536.281830063346	0.011008214749
1	3222	536.658716705951	0.011008214749
1	3227	538.798173172367	0.011008214749
1	3232	539.023844218417	0.011008214749
1	3237	539.614181766088	0.011008214749
1	3242	540.550804635411	0.011008214749
1	3247	540.595237257325	0.011008214749
1	3252	543.207066824205	0.011008214749
1	3257	543.454834406935	0.011008214749
1	3262	544.406104773703	0.011008214749
1	3268	544.912880218721	0.011008214749
1	3273	546.305382683128	0.011008214749
1	3278	546.508835724726	0.011008214749
1	3283	547.932003549979	0.011008214749
1	3288	548.07103574485	0.011008214749
1	3293	548.885334699446	0.011008214749
1	3298	549.335958122081	0.011008214749
1	3303	549.380370317357	0.011008214749
1	3308	549.651491372095	0.011008214749
1	3313	551.721153656068	0.011008214749
1	3318	552.1271732803	0.011008214749
1	3323	552.201918770244	0.011008214749
1	3328	553.202742760151	0.011008214749
1	3333	554.419424254726	0.011008214749
1	3338	555.559497446895	0.011008214749
1	3343	555.628642705205	0.011008214749
1	3348	555.728652216175	0.011008214749
1	3353	556.251520388365	0.011008214749
1	3358	557.733360415067	0.011008214749
1	3363	558.822813542119	0.011008214749
1	3368	559.137640835872	0.011008214749
1	3373	559.412948252015	0.011008214749
1	3378	560.248780742242	0.011008214749
1	3383	561.75032096659	0.011008214749
1	3388	562.359007984073	0.011008214749
1	3393	563.456307730201	0.011008214749
1	3398	565.192389081834	0.011008214749
1	3403	565.480161929329	0.011008214749
1	3408	566.774032200082	0.011008214749
1	3413	567.969591138683	0.011008214749
1	3418	568.763565123178	0.011008214749
1	3423	570.457497457322	0.011008214749
1	3428	570.508800437117	0.011008214749
1	3433	570.676334036632	0.011008214749
1	3438	570.866603457588	0.011008214749
1	3443	572.46281085633	0.011008214749
1	3448	572.580071631936	0.011008214749
1	3453	573.196282339862	0.011008214749
1	3458	573.55679380052	0.011008214749
1	3463	574.307932631194	0.011008214749
1	3468	575.255267026386	0.011008214749
1	3473	577.125115716073	0.011008214749
1	3478	577.288411225728	0.011008214749
1	3483	577.771114049762	0.011008214749
1	3488	579.877090284517	0.011008214749
1	3493	581.113876476365	0.011008214749
1	3498	581.274153330124	0.011008214749
1	3503	582.565116704379	0.011008214749
1	3508	585.371666148305	0.011008214749
1	3513	585.85269976114	0.011008214749
1	3519	587.522005377363	0.011008214749
1	3524	588.785887593858	0.011008214749
1	3529	588.901803582858	0.011008214749
1	3534	588.95558262866	0.011008214749
1	3539	589.394574667627	0.011008214749
1	3544	590.930185479191	0.011008214749
1	3549	591.475484297904	0.011008214749
1	3554	591.752506211707	0.011008214749
1	3559	592.121505664593	0.011008214749
1	3564	592.270792124998	0.011008214749
1	3569	592.388466286144	0.011008214749
1	3574	593.570770249602	0.011008214749
1	3579	594.654789459409	0.011008214749
1	3584	595.591112906383	0.011008214749
1	3589	595.765122167866	0.011008214749
1	3594	596.646926090081	0.011008214749
1	3599	596.853580903234	0.011008214749
1	3604	596.912048989245	0.011008214749
1	3609	597.720531604677	0.011008214749
1	3614	598.932028729508	0.011008214749
1	3619	599.197901549137	0.011008214749
1	3624	599.431632248894	0.011008214749
1	3629	600.293906459026	0.011008214749
1	3634	601.02631742313	0.011008214749
1	3639	601.05343712895	0.011008214749
1	3644	602.065844680328	0.011008214749
1	3649	602.32029014932	0.011008214749
1	3654	603.014726546772	0.011008214749
1	3659	604.022801453885	0.011008214749
1	3664	604.125847942959	0.011008214749
1	3669	604.171550238812	0.011008214749
1	3674	604.815999360507	0.011008214749
1	3679	605.077821706711	0.011008214749
1	3684	605.821118857132	0.011008214749
1	3689	608.422953718378	0.011008214749
1	3694	608.468750544103	0.011008214749
1	3699	608.517487397566	0.011008214749
1	3704	609.417770832197	0.011008214749
1	3709	609.667768137206	0.011008214749
1	3714	611.306366388987	0.011008214749
1	3719	611.714006686963	0.011008214749
1	3724	612.33084885279	0.011008214749
1	3729	613.558808645273	0.011008214749
1	3734	614.382120305988	0.011008214749
1	3739	615.617233094499	0.011008214749
1	3744	616.853147228691	0.011008214749
1	3749	617.653753668057	0.011008214749
1	3754	618.111018669832	0.011008214749
1	3759	618.171963319982	0.011008214749
1	3764	618.393425413871	0.011008214749
1	3770	618.786154404503	0.011008214749
1	3775	618.994845667477	0.011008214749
1	3780	619.598375462685	0.011008214749
1	3785	620.503451672385	0.011008214749
1	3790	621.09530848882	0.011008214749
1	3795	621.974810207794	0.011008214749
1	3800	622.610816022328	0.011008214749
1	3805	624.199710446032	0.011008214749
1	3810	624.994437392362	0.011008214749
1	3815	625.532806961439	0.011008214749
1	3820	627.526621117306	0.011008214749
1	3825	627.955716890039	0.011008214749
1	3830	628.100116127784	0.011008214749
1	3835	629.287342857827	0.011008214749
1	3840	632.078818583593	0.011008214749
1	3845	632.78547041807	0.011008214749
1	3850	633.619846691196	0.011008214749
1	3855	634.972883528975	0.011008214749
1	3860	635.989450795154	0.011008214749
1	3865	638.541158092368	0.011008214749
1	3870	639.636321977412	0.011008214749
1	3875	641.963204362437	0.011008214749
1	3880	642.082863212496	0.011008214749
1	3885	642.266697925423	0.011008214749
1	3890	643.762953416279	0.011008214749
1	3895	644.456056842114	0.011008214749
1	3900	645.611945773233	0.011008214749
1	3905	646.597544088957	0.011008214749
1	3910	648.214049767622	0.011008214749
1	3915	648.551891572727	0.011008214749
1	3920	648.71591414723	0.011008214749
1	3925	649.005138192838	0.011008214749
1	3930	649.598294053966	0.011008214749
1	3935	649.821567201657	0.011008214749
1	3940	650.694433420611	0.011008214749
1	3945	650.807630916895	0.011008214749
1	3950	650.821164924215	0.011008214749
1	3955	650.99423534803	0.011008214749
1	3960	651.404451116337	0.011008214749
1	3965	651.576164967019	0.011008214749
1	3970	652.03814914301	0.011008214749
1	3975	652.857925688063	0.011008214749
1	3980	653.602242446113	0.011008214749
1	3985	653.938419955847	0.011008214749
1	3990	654.199920310583	0.011008214749
1	3995	655.169194395882	0.011008214749
1	4000	655.994797318188	0.011008214749
1	4005	658.662039236146	0.011008214749
1	4010	661.780735020919	0.011008214749
1	4015	663.422083828615	0.011008214749
1	4021	663.893541033148	0.011008214749
1	4026	663.958691936932	0.011008214749
1	4031	665.71326772969	0.011008214749
1	4036	666.219537121135	0.011008214749
1	4041	666.980837200129	0.011008214749
1	4046	667.998418140128	0.011008214749
1	4051	668.881415836802	0.011008214749
1	4056	669.140367401366	0.011008214749
1	4061	669.952792263526	0.011008214749
1	4066	670.201407386422	0.011008214749
1	4071	670.450551014639	0.011008214749
1	4076	672.337204843954	0.011008214749
1	4081	675.128723779907	0.011008214749
1	4086	676.174733399045	0.011008214749
1	4091	676.301289713318	0.011008214749
1	4096	676.644450233202	0.011008214749
1	4101	677.339461707537	0.011008214749
1	4106	678.234989535185	0.011008214749
1	4111	680.155366264352	0.011008214749
1	4116	680.283598638204	0.011008214749
1	4121	683.26901433606	0.011008214749
1	4126	684.210637223401	0.011008214749
1	4131	684.54640905931	0.011008214749
1	4136	686.405951884296	0.011008214749
1	4141	686.990566649569	0.011008214749
1	4146	687.028978748779	0.011008214749
1	4151	687.571176304941	0.011008214749
1	4156	688.556858499566	0.011008214749
1	4161	688.881081160156	0.011008214749
1	4166	688.894006864764	0.011008214749
1	4171	689.050848846126	0.011008214749
1	4176	689.950672571459	0.011008214749
1	4181	693.017976421337	0.011008214749
1	4186	693.346023821989	0.011008214749
1	4191	693.418798564036	0.011008214749
1	4196	694.14034446563	0.011008214749
1	4201	694.179042394197	0.011008214749
1	4206	694.219760761116	0.011008214749
1	4211	694.832149184961	0.011008214749
1	4216	695.954878369908	0.011008214749
1	4221	696.994063430075	0.011008214749
1	4226	698.518173116602	0.011008214749
1	4231	698.846257137787	0.011008214749
1	4236	701.553888380499	0.011008214749
1	4241	701.994020875811	0.011008214749
1	4246	702.634933016653	0.011008214749
1	4251	702.781851352714	0.011008214749
1	4256	704.232490887557	0.011008214749
1	4263	705.947142719639	0.011008214749
1	4266	705.958150934388	0.01558041089
1	4272	706.557815390636	0.011008214749
1	4277	706.74831129511	0.011008214749
1	4282	707.541325393628	0.011008214749
1	4287	711.170133621158	0.011008214749
1	4292	711.242967992347	0.011008214749
1	4297	711.514267284703	0.011008214749
1	4302	711.615855012628	0.011008214749
1	4307	712.258622934935	0.011008214749
1	4312	714.017310196086	0.011008214749
1	4317	717.050616928738	0.011008214749
1	4322	717.715478195702	0.011008214749
1	4327	718.211166892382	0.011008214749
1	4332	721.36889927542	0.011008214749
1	4337	724.146082672316	0.011008214749
1	4342	728.307506116824	0.011008214749
1	4347	730.911197470334	0.011008214749
1	4352	731.114582933236	0.011008214749
1	4357	731.932693415523	0.011008214749
1	4362	733.957268723426	0.011008214749
1	4367	734.248724303242	0.011008214749
1	4372	734.305754218009	0.011008214749
1	4377	734.326048647405	0.011008214749
1	4382	736.693137129933	0.011008214749
1	4387	737.497107585642	0.011008214749
1	4392	738.822550302009	0.011008214749
1	4397	738.868067512282	0.011008214749
1	4402	739.068502801081	0.011008214749
1	4407	739.272395504601	0.011008214749
1	4414	739.956796397638	0.011008214749
1	4417	739.967804612387	0.01785188787
1	4422	741.243587964925	0.011008214749
1	4427	741.517634444829	0.011008214749
1	4432	743.380656545781	0.011008214749
1	4437	743.977708248689	0.011008214749
1	4442	744.429369427665	0.011008214749
1	4447	745.204312437422	0.011008214749
1	4452	745.740076942738	0.011008214749
1	4457	746.789204206538	0.011008214749
1	4462	746.862562404981	0.011008214749
1	4467	747.726168795939	0.011008214749
1	4472	748.034159647229	0.011008214749
1	4477	748.244532159677	0.011008214749
1	4482	751.564536154652	0.011008214749
1	4487	751.951678625695	0.011008214749
1	4492	752.105795491272	0.011008214749
1	4497	752.264269895251	0.011008214749
1	4502	752.949569928183	0.011008214749
1	4507	753.875123010799	0.011008214749
1	4512	755.349568622556	0.011008214749
1	4517	755.947801764217	0.011008214749
1	4523	756.428210989775	0.011008214749
1	4528	756.478585710532	0.011008214749
1	4533	756.502479648339	0.011008214749
1	4538	756.556479681394	0.011008214749
1	4543	756.63461597399	0.011008214749
1	4548	757.194130038024	0.011008214749
1	4553	758.434503121183	0.011008214749
1	4558	759.189241460812	0.011008214749
1	4563	759.262813725494	0.011008214749
1	4568	760.589866192751	0.011008214749
1	4573	761.040102654071	0.011008214749
1	4578	761.4445670478	0.011008214749
1	4583	761.770988367705	0.011008214749
1	4588	762.65023213105	0.011008214749
1	4593	762.801140634886	0.011008214749
1	4598	763.274093365444	0.011008214749
1	4603	764.153909859919	0.011008214749
1	4608	764.26536395686	0.011008214749
1	4613	764.715323367933	0.011008214749
1	4618	765.006590250592	0.011008214749
1	4623	765.945786748446	0.011008214749
1	4628	766.301152025528	0.011008214749
1	4633	767.932969530374	0.011008214749
1	4638	768.272949604016	0.011008214749
1	4643	768.291932257359	0.011008214749
1	4648	768.351871546175	0.011008214749
1	4653	769.254520212483	0.011008214749
1	4658	769.776024215923	0.011008214749
1	4663	770.003938065052	0.011008214749
1	4668	770.817369992144	0.011008214749
1	4673	770.890804570224	0.011008214749
1	4678	770.999036951032	0.011008214749
1	4683	771.268448434733	0.011008214749
1	4688	771.948640958567	0.011008214749
1	4693	772.940479310296	0.011008214749
1	4698	774.61268804681	0.011008214749
1	4703	774.794399229302	0.011008214749
1	4708	775.701758104492	0.011008214749
1	4713	776.318095192717	0.011008214749
1	4718	776.684156433672	0.011008214749
1	4723	777.028404987613	0.011008214749
1	4728	779.279326075953	0.011008214749
1	4733	779.409094666362	0.011008214749
1	4738	780.271039281467	0.011008214749
1	4743	780.341517129383	0.011008214749
1	4748	782.371537215842	0.011008214749
1	4753	782.566526751551	0.011008214749
1	4758	783.927563422386	0.011008214749
1	4763	786.192576600093	0.011008214749
1	4768	788.633409409896	0.011008214749
1	4774	789.361329674533	0.011008214749
1	4779	789.723053964598	0.011008214749
1	4784	789.837510329425	0.011008214749
1	4789	790.578523273059	0.011008214749
1	4794	791.515965892482	0.011008214749
1	4799	792.416156251732	0.011008214749
1	4804	792.500657121491	0.011008214749
1	4809	792.65544872744	0.011008214749
1	4814	793.394942950171	0.011008214749
1	4819	794.457325973394	0.011008214749
1	4824	795.064425586403	0.011008214749
1	4829	795.213476689629	0.011008214749
1	4834	796.956991725764	0.011008214749
1	4839	797.305602761699	0.011008214749
1	4844	799.439611872824	0.011008214749
1	4849	799.956475348941	0.011008214749
1	4854	800.462583505897	0.011008214749
1	4859	802.959887827797	0.011008214749
1	4864	803.491074561979	0.011008214749
1	4869	804.367581840311	0.011008214749
1	4874	805.092798267393	0.011008214749
1	4879	806.199998793863	0.011008214749
1	4884	807.032391728557	0.011008214749
1	4889	807.336453697523	0.011008214749
1	4894	808.701525716358	0.011008214749
1	4899	808.733155226571	0.011008214749
1	4904	809.247914663727	0.011008214749
1	4909	810.032905923456	0.011008214749
1	4914	810.527681914617	0.011008214749
1	4919	811.041609269111	0.011008214749
1	4924	811.549394489245	0.011008214749
1	4929	811.606969158047	0.011008214749
1	4934	812.104631079325	0.011008214749
1	4939	813.933207925172	0.011008214749
1	4944	814.916255033612	0.011008214749
1	4949	815.18743687993	0.011008214749
1	4954	815.376998176592	0.011008214749
1	4959	816.034559610194	0.011008214749
1	4964	817.154996600573	0.011008214749
1	4969	818.631376047685	0.011008214749
1	4974	819.571045615827	0.011008214749
1	4979	819.853568248869	0.011008214749
1	4984	820.665969444682	0.011008214749
1	4989	824.940619142551	0.011008214749
1	4994	825.181430568873	0.011008214749
1	4999	825.866426250891	0.011008214749
1	5004	825.929774402216	0.011008214749
1	5009	826.648557920954	0.011008214749
1	5014	827.384278653696	0.011008214749
1	5019	827.41429156863	0.011008214749
1	5025	829.750511262802	0.011008214749
1	5030	832.818974396878	0.011008214749
1	5035	832.991832689761	0.011008214749
1	5040	833.201324275358	0.011008214749
1	5045	834.086710468146	0.011008214749
1	5050	834.645262351733	0.011008214749
1	5055	835.434242858677	0.011008214749
1	5060	835.835355863136	0.011008214749
1	5065	837.092399139679	0.011008214749
1	5070	837.276286251127	0.011008214749
1	5075	837.959035187748	0.011008214749
1	5080	838.237321985178	0.011008214749
1	5085	839.395386958804	0.011008214749
1	5090	840.243829995544	0.011008214749
1	5095	841.327415799566	0.011008214749
1	5100	843.495225909277	0.011008214749
1	5105	844.155045077487	0.011008214749
1	5110	846.021330683474	0.011008214749
1	5115	846.227504038976	0.011008214749
1	5120	847.023984302442	0.011008214749
1	5125	850.454628440774	0.011008214749
1	5130	851.012499192807	0.011008214749
1	5135	851.498256285736	0.011008214749
1	5140	851.853779933797	0.011008214749
1	5145	854.122502658351	0.011008214749
1	5150	854.276196940365	0.011008214749
1	5155	855.121085460746	0.011008214749
1	5160	856.325678172831	0.011008214749
1	5165	857.930462505911	0.011008214749
1	5170	858.371116262108	0.011008214749
1	5175	859.070194557223	0.011008214749
1	5180	861.967997451552	0.011008214749
1	5185	862.859524024728	0.011008214749
1	5190	863.766190274155	0.011008214749
1	5195	863.787975880353	0.011008214749
1	5200	864.649750984511	0.011008214749
1	5205	865.258032295942	0.011008214749
1	5210	866.5660453984	0.011008214749
1	5215	867.608578392786	0.011008214749
1	5220	869.651718674901	0.011008214749
1	5225	870.005217235159	0.011008214749
1	5230	870.153626240027	0.011008214749
1	5235	872.219668411807	0.011008214749
1	5240	874.464062409583	0.011008214749
1	5245	874.946626647546	0.011008214749
1	5250	875.114183956638	0.011008214749
1	5255	875.285355762062	0.011008214749
1	5260	877.051208177689	0.011008214749
1	5265	878.825610518307	0.011008214749
1	5270	880.050519841245	0.011008214749
1	5276	883.505922982666	0.011008214749
1	5281	883.677871403301	0.011008214749
1	5286	884.08227548168	0.011008214749
1	5291	884.248816728601	0.011008214749
1	5296	886.6331344875	0.011008214749
1	5301	887.097135078825	0.011008214749
1	5306	892.844908493536	0.011008214749
1	5311	894.009243871242	0.011008214749
1	5316	894.568378083711	0.011008214749
1	5321	894.783129331392	0.011008214749
1	5326	895.206219428578	0.011008214749
1	5331	895.24310483473	0.011008214749
1	5336	896.348968267434	0.011008214749
1	5341	896.643354906879	0.011008214749
1	5348	897.618412125276	0.011008214749
1	5351	897.629420340025	0.020286121005
1	5358	898.354568497013	0.011008214749
1	5361	898.365576711762	0.013243817015
1	5366	898.565578398639	0.011008214749
1	5371	898.608177947457	0.011008214749
1	5376	898.795622473681	0.011008214749
1	5381	899.343809315759	0.011008214749
1	5386	899.388328616218	0.011008214749
1	5391	900.12852245117	0.011008214749
1	5396	900.691404959753	0.011008214749
1	5401	900.929276824565	0.011008214749
1	5406	901.60567345539	0.011008214749
1	5411	902.317061484122	0.011008214749
1	5416	903.812680518777	0.011008214749
1	5421	904.897935155628	0.011008214749
1	5426	905.4041686425	0.011008214749
1	5431	906.465568233991	0.011008214749
1	5436	907.901049387891	0.011008214749
1	5441	910.626540131416	0.011008214749
1	5446	911.072644656448	0.011008214749
1	5451	913.437084040452	0.011008214749
1	5456	913.720266639409	0.011008214749
1	5461	913.945662224736	0.011008214749
1	5466	914.063736925952	0.011008214749
1	5471	915.969925371158	0.011008214749
1	5476	916.633856928659	0.011008214749
1	5481	917.811535780044	0.011008214749
1	5486	917.889740168837	0.011008214749
1	5491	918.459292370364	0.011008214749
1	5496	919.230202378555	0.011008214749
1	5501	919.50272822467	0.011008214749
1	5506	919.752085169897	0.011008214749
1	5511	923.323517165273	0.011008214749
1	5516	923.543749224752	0.011008214749
1	5521	924.056459576955	0.011008214749
1	5527	924.293134151143	0.090778331776
1	5532	924.933550825358	0.011008214749
1	5537	925.054855440908	0.011008214749
1	5542	926.836447380682	0.011008214749
1	5547	927.981613380981	0.011008214749
1	5552	929.006249259458	0.011008214749
1	5557	929.824209180268	0.011008214749
1	5562	932.337754471608	0.011008214749
1	5567	933.318294304079	0.011008214749
1	5572	933.613068719478	0.011008214749
1	5577	935.033489419767	0.011008214749
1	5582	935.255965305918	0.011008214749
1	5587	936.045156130685	0.011008214749
1	5592	936.461696869222	0.011008214749
1	5597	940.389256096296	0.011008214749
1	5602	941.225295775624	0.011008214749
1	5607	941.583191238471	0.011008214749
1	5612	942.111676459607	0.011008214749
1	5617	942.198711210563	0.011008214749
1	5622	942.313363202026	0.011008214749
1	5627	943.199924197994	0.011008214749
1	5632	943.701299019983	0.011008214749
1	5637	944.553626679566	0.011008214749
1	5644	945.479429046697	0.011008214749
1	5647	945.490437261446	0.016491842732
1	5652	946.165374208729	0.011008214749
1	5657	947.702819386426	0.011008214749
1	5662	951.167127293388	0.011008214749
1	5667	951.911417615497	0.011008214749
1	5672	952.069480176668	0.011008214749
1	5677	952.639058757344	0.011008214749
1	5682	953.043633591529	0.011008214749
1	5687	953.90576583248	0.011008214749
1	5692	955.955633696899	0.011008214749
1	5697	956.0410663688	0.011008214749
1	5702	956.052949842593	0.011008214749
1	5707	956.521529566647	0.011008214749
1	5712	961.060075277084	0.011008214749
1	5717	961.763885293055	0.011008214749
1	5722	961.9329529449	0.011008214749
1	5727	962.960959654049	0.011008214749
1	5732	963.075634786516	0.011008214749
1	5737	963.197487827757	0.011008214749
1	5742	963.397872204419	0.011008214749
1	5747	966.669580178826	0.011008214749
1	5752	967.611077198504	0.011008214749
1	5757	969.885975098357	0.011008214749
1	5762	969.983807547463	0.011008214749
1	5767	971.084269830153	0.011008214749
1	5772	971.201846156586	0.011008214749
1	5778	971.438520730774	0.138678443293
1	5783	971.527594497574	0.011008214749
1	5788	971.62476530208	0.011008214749
1	5793	971.741780174601	0.011008214749
1	5798	973.284182301829	0.011008214749
1	5803	974.383776872812	0.011008214749
1	5808	977.724276201191	0.011008214749
1	5813	977.748659353554	0.011008214749
1	5818	978.646630925774	0.011008214749
1	5823	979.611033434815	0.011008214749
1	5828	981.506584554766	0.011008214749
1	5833	981.864510241501	0.011008214749
1	5838	982.17047891278	0.011008214749
1	5843	982.339821345963	0.011008214749
1	5848	982.392073838614	0.011008214749
1	5853	984.710950395955	0.011008214749
1	5858	985.327913121231	0.011008214749
1	5863	988.66478691826	0.011008214749
1	5868	988.89863017055	0.011008214749
1	5873	989.282123440601	0.011008214749
1	5878	990.395313794669	0.011008214749
1	5883	991.067976065882	0.011008214749
1	5888	994.001403056533	0.011008214749
1	5893	994.058474437572	0.011008214749
1	5898	994.592472893544	0.011008214749
1	5903	994.762693688445	0.011008214749
1	5908	996.523210434012	0.011008214749
1	5913	996.553646337362	0.011008214749
1	5918	996.674893473924	0.011008214749
1	5923	996.741895403036	0.011008214749
1	5928	997.028429923819	0.011008214749
1	5933	997.321025293298	0.011008214749
1	5938	997.640088339842	0.011008214749
1	5943	998.689867822744	0.011008214749
1	5948	998.947493774734	0.011008214749
2	5	0.237664841586	0
2	10	0.348243769404	0
2	15	0.726309862282	0
2	20	0.882135003608	0
2	25	1.221429170512	0
2	30	1.507073506473	0
2	35	2.501000076678	0
2	40	3.944224595232	0
2	45	3.988797416909	0
2	50	5.327239238483	0
2	55	5.449493716991	0
2	60	5.543363311018	0
2	65	7.558627960766	0
2	70	9.085524132229	0
2	75	9.742064591208	0
2	80	10.498069571906	0
2	85	11.60412678328	0
2	90	13.046653450731	0
2	95	13.781436619271	0
2	100	14.564090635137	0
2	105	15.864709336655	0
2	110	17.060746954732	0
2	117	18.484660177404	0
2	120	18.495668392153	0.007408901877
2	125	19.386539160776	0
2	130	20.002700291906	0
2	135	20.225342849685	0
2	140	20.292602526954	0
2	145	20.409271077182	0
2	150	21.03206961631	0
2	155	21.339967453624	0
2	160	22.431565909247	0
2	165	22.464520660914	0
2	170	23.246220594325	0
2	175	23.572954081683	0
2	180	24.195462504016	0
2	185	25.084883962573	0
2	190	27.728797013134	0
2	195	28.043270760285	0
2	200	28.356109967781	0
2	205	29.477078934745	0
2	210	30.174020015133	0
2	215	30.38459748605	0
2	220	30.411537740515	0
2	225	30.926040094832	0
2	230	31.559324070686	0
2	235	31.85630677589	0
2	240	31.918694843608	0
2	245	33.228883535191	0
2	250	33.522284238833	0
2	256	35.291632036479	0
2	261	36.146861222927	0
2	266	37.453395086099	0
2	271	37.657749280766	0
2	276	41.364764490437	0
2	281	41.893927045583	0
2	286	42.071396885646	0
2	291	44.275522543659	0
2	296	45.256052215215	0
2	301	45.799987819557	0
2	306	45.910999036535	0
2	311	48.460388439012	0
2	316	50.224166372428	0
2	321	50.70613431269	0
2	326	51.238879555029	0
2	331	52.447323347895	0
2	336	53.341971519281	0
2	341	53.415361582951	0
2	346	53.446678432128	0
2	351	53.640178591616	0
2	356	55.119677157393	0
2	361	55.393514280609	0
2	366	57.075148058117	0
2	373	57.209953261826	0
2	376	57.220961476575	0.006626668899
2	381	59.542184078178	0
2	386	60.162390318215	0
2	391	61.055944631825	0
2	396	61.07355573799	0
2	401	61.18133426027	0
2	406	61.998655917292	0
2	411	62.048448264625	0
2	416	63.834891592316	0
2	421	63.878584552554	0
2	426	64.487167070828	0
2	431	66.397962626698	0
2	436	66.448809942337	0
2	441	69.674688877344	0
2	446	70.21319107793	0
2	451	70.35563960201	0
2	456	71.096634163422	0
2	461	71.298357095394	0
2	466	73.721454926952	0
2	471	73.936377723143	0
2	476	76.872449731991	0
2	481	78.063222219614	0
2	486	78.324365299892	0
2	491	78.769521106391	0
2	496	78.971464380001	0
2	501	79.35852090595	0
2	507	79.595195480138	0.054017101534
2	512	79.802693062091	0
2	517	79.904618960581	0
2	522	83.514571368149	0
2	527	86.902307748637	0
2	532	86.997726698131	0
2	537	88.836653743354	0
2	542	89.72487348972	0
2	547	90.458765371436	0
2	552	90.951395303555	0
2	557	91.317235153341	0
2	562	94.843971711256	0
2	567	94.866626427285	0
2	572	96.334637242492	0
2	577	97.066118557301	0
2	582	97.260786511569	0
2	587	99.154292458173	0
2	592	99.736186354128	0
2	597	100.199136538476	0
2	602	100.360280022773	0
2	607	101.154195168054	0
2	612	103.152924434163	0
2	617	103.21197065217	0
2	622	103.282084855536	0
2	627	104.050230265739	0
2	632	106.259630361545	0
2	637	108.37552246323	0
2	642	108.398397868092	0
2	647	108.812007690214	0
2	652	108.914933530141	0
2	657	109.635844932095	0
2	662	110.535456631305	0
2	667	111.138391266194	0
2	672	111.32821714356	0
2	677	111.83798185654	0
2	682	112.68192486204	0
2	687	112.892865317237	0
2	692	113.194932594548	0
2	697	113.560871158932	0
2	702	115.961369940669	0
2	707	116.410278353548	0
2	712	117.395416441696	0
2	717	118.262519991989	0
2	722	118.964801801201	0
2	727	119.258100299291	0
2	732	121.072544164202	0
2	737	122.728901936213	0
2	742	125.163801185001	0
2	747	125.668408613199	0
2	752	126.649246098534	0
2	758	126.991162548126	0
2	763	127.404722106638	0
2	768	127.917862806635	0
2	773	128.881353525949	0
2	778	129.283221583147	0
2	783	130.061050286239	0
2	788	130.368689032035	0
2	793	130.510306853672	0
2	798	130.58678020091	0
2	803	131.328180180727	0
2	808	131.391525029772	0
2	813	138.143105167704	0
2	818	140.007214266863	0
2	823	140.819223845264	0
2	828	141.047437875104	0
2	833	141.435290292236	0
2	838	141.974596089512	0
2	843	142.078926337856	0
2	848	142.784386682692	0
2	853	143.358617771624	0
2	858	144.576339726677	0
2	863	146.051669583368	0
2	868	146.224870292352	0
2	873	146.952636195668	0
2	878	147.347156718163	0
2	883	148.338884503339	0
2	888	149.155165422726	0
2	893	149.827220853929	0
2	898	150.35541625655	0
2	903	151.206456140653	0
2	908	151.762329463368	0
2	913	152.058137139043	0
2	918	154.176527318765	0
2	925	154.338000085593	0
2	928	154.349008300342	0.008527407371
2	933	154.370271248755	0
2	938	155.273163996827	0
2	943	156.351753417822	0
2	948	156.888801048237	0
2	953	158.178413506631	0
2	958	158.371458353862	0
2	965	159.552440954832	0
2	968	159.563449169581	0.000905385899
2	973	161.028169381687	0
2	978	161.773746736593	0
2	983	162.316667698738	0
2	988	162.48980257691	0
2	993	162.771663368956	0
2	998	163.744087628542	0
2	1003	165.260297848169	0
2	1009	165.496972422357	0.137343207803
2	1014	165.76063912575	0
2	1019	170.528918442032	0
2	1024	171.438264598395	0
2	1029	172.017520679881	0
2	1034	173.531351899924	0
2	1039	174.672044593991	0
2	1044	174.916710424415	0
2	1049	175.272421890302	0
2	1054	175.425157457897	0
2	1059	175.76281667698	0
2	1064	176.759152309207	0
2	1069	178.053863496064	0
2	1074	178.53899905643	0
2	1079	180.763701423402	0
2	1084	180.781675175556	0
2	1089	181.039287041535	0
2	1094	181.655646725603	0
2	1099	182.290871352759	0
2	1104	182.814019206417	0
2	1109	183.608173904445	0
2	1114	183.760429256145	0
2	1119	183.858833766838	0
2	1124	185.662170878903	0
2	1129	186.493459071863	0
2	1134	187.107874019343	0
2	1139	187.749741651334	0
2	1144	187.913896193448	0
2	1149	188.100607165738	0
2	1154	189.23184100912	0
2	1159	189.536722890656	0
2	1164	190.744065548678	0
2	1169	191.196813198479	0
2	1174	191.626984509986	0
2	1179	192.065945348569	0
2	1184	192.662303344201	0
2	1189	193.016088053811	0
2	1194	196.227130644128	0
2	1199	196.543941828888	0
2	1204	198.559128949443	0
2	1209	198.605526588088	0
2	1214	199.275763246775	0
2	1219	201.185746874378	0
2	1224	201.672934071476	0
2	1229	202.428298430429	0
2	1234	203.131408958864	0
2	1239	203.149970990021	0
2	1244	205.206740004068	0
2	1249	208.01823597609	0
2	1254	208.093629718919	0
2	1260	208.330304293107	0.113696299278
2	1265	208.530269659765	0
2	1270	209.30105267859	0
2	1275	209.604130974	0
2	1280	210.531028072927	0
2	1285	211.42382449893	0
2	1290	211.882850035582	0
2	1295	211.906514837847	0
2	1300	212.61913160686	0
2	1305	212.657948385695	0
2	1310	213.375725571904	0
2	1315	213.643614455986	0
2	1320	213.756185276848	0
2	1325	214.105190500999	0
2	1330	215.055789250039	0
2	1335	220.474087750699	0
2	1340	221.457043658001	0
2	1345	222.42817147442	0
2	1350	222.617693709104	0
2	1355	222.801561202322	0
2	1360	223.882847353041	0
2	1365	224.271331256165	0
2	1370	228.152499520415	0
2	1375	229.902922761227	0
2	1380	232.289740320289	0
2	1385	232.551101011096	0
2	1390	232.720768992599	0
2	1395	232.929062205256	0
2	1400	233.029949275145	0
2	1405	233.682737846779	0
2	1410	235.471829449665	0
2	1415	242.224497737912	0
2	1420	242.29702054875	0
2	1425	243.918883342486	0
2	1430	244.524446184698	0
2	1435	244.929804027549	0
2	1440	245.206365800499	0
2	1445	246.299496318343	0
2	1450	246.861445579994	0
2	1455	247.252379281333	0
2	1460	247.409743446608	0
2	1465	247.853153072456	0
2	1470	248.111878347121	0
2	1475	248.694101500355	0
2	1480	249.714677245942	0
2	1485	251.983299438958	0
2	1490	252.066842259623	0
2	1495	253.262331167686	0
2	1500	255.069353801179	0
2	1505	255.362275352199	0
2	1511	255.598949926387	0.098260231659
2	1516	257.736043456966	0
2	1521	259.145406835098	0
2	1526	259.9516391817	0
2	1531	260.010691914067	0
2	1536	260.871123976772	0
2	1541	261.487968559515	0
2	1546	261.632738996724	0
2	1551	262.38544724496	0
2	1556	263.827268079665	0
2	1561	266.533854440728	0
2	1566	266.673171195347	0
2	1571	266.998681081348	0
2	1576	267.128961375506	0
2	1581	267.373158572859	0
2	1586	267.705351416931	0
2	1591	268.46825609252	0
2	1596	269.639426133027	0
2	1601	269.796263646223	0
2	1606	270.77282180675	0
2	1611	273.843695277617	0
2	1616	273.903457311872	0
2	1621	273.982174929311	0
2	1626	274.650271167611	0
2	1631	275.312176800903	0
2	1636	275.335823775397	0
2	1641	275.911612836108	0
2	1646	277.71567745629	0
2	1651	278.063629819827	0
2	1656	278.487725479246	0
2	1661	278.84040415389	0
2	1666	279.101619441372	0
2	1671	279.950462151217	0
2	1676	280.322516852568	0
2	1681	281.790947241327	0
2	1686	283.03906965314	0
2	1691	285.009669586973	0
2	1696	286.20657723794	0
2	1701	287.141751213465	0
2	1706	287.684022097908	0
2	1711	290.958443315958	0
2	1718	291.140467070216	0
2	1721	291.151475284965	0.00674098223
2	1726	291.66529584466	0
2	1731	291.742731444797	0
2	1736	291.857386700889	0
2	1741	292.382164390266	0
2	1746	292.98200864842	0
2	1751	293.755261552481	0
2	1756	294.782344030134	0
2	1762	295.240341864424	0
2	1767	296.029923275544	0
2	1772	296.118084029154	0
2	1777	296.378968103789	0
2	1782	300.508514074933	0
2	1787	302.533252090202	0
2	1792	302.94096496863	0
2	1797	303.208804221841	0
2	1802	303.228324915046	0
2	1807	304.252926795661	0
2	1812	305.868211224469	0
2	1817	306.589301938586	0
2	1822	307.219240253894	0
2	1827	307.365765672956	0
2	1832	308.434959436382	0
2	1837	309.187671294143	0
2	1842	309.246250338297	0
2	1847	309.343758483934	0
2	1852	311.031339288212	0
2	1857	313.313344266571	0
2	1862	314.117542998984	0
2	1867	316.572323056686	0
2	1872	316.71122252893	0
2	1877	316.997842759697	0
2	1882	317.317580001665	0
2	1887	318.938921367849	0
2	1892	319.703961585909	0
2	1897	319.768138978533	0
2	1902	321.308417515155	0
2	1907	321.437400282372	0
2	1912	322.31025509386	0
2	1917	323.400786773446	0
2	1922	323.628051242584	0
2	1927	327.024680303332	0
2	1932	328.276393028787	0
2	1937	328.871227836961	0
2	1942	329.932607531724	0
2	1947	331.074655537248	0
2	1954	332.756475320891	0
2	1957	332.76748353564	0.00875434954
2	1962	333.465540765117	0
2	1967	334.031521193367	0
2	1972	334.067275703363	0
2	1977	334.726793289875	0
2	1982	334.986393634795	0
2	1987	335.232968093709	0
2	1992	336.133080291043	0
2	1997	336.193686466645	0
2	2002	340.153542140432	0
2	2007	340.36373123178	0
2	2013	341.147293118392	0
2	2018	341.493181040871	0
2	2023	341.665300488157	0
2	2028	342.799978152061	0
2	2033	343.111253917998	0
2	2038	343.290943060321	0
2	2043	343.991277263546	0
2	2048	346.098770674213	0
2	2053	346.160513130618	0
2	2058	347.036429037245	0
2	2063	347.28720625712	0
2	2068	348.321766196932	0
2	2073	348.640062314653	0
2	2078	348.686599681862	0
2	2083	350.706890706201	0
2	2088	351.313440116112	0
2	2093	352.429772597325	0
2	2098	352.926563615033	0
2	2103	353.067043225054	0
2	2108	353.716586190437	0
2	2113	353.729116914163	0
2	2118	354.841343818126	0
2	2123	356.87474194915	0
2	2128	357.044331105467	0
2	2133	357.492683627828	0
2	2138	357.722132802991	0
2	2143	361.87052204619	0
2	2148	362.105393529261	0
2	2153	363.568799068968	0
2	2158	364.398154675604	0
2	2163	364.753271680841	0
2	2168	365.653037833536	0
2	2173	366.316429216267	0
2	2178	366.780197005523	0
2	2183	367.459530692084	0
2	2188	367.538132450269	0
2	2193	369.365713695467	0
2	2198	371.246798062824	0
2	2203	373.00900187301	0
2	2208	374.112499958322	0
2	2213	374.504751938672	0
2	2218	375.213026723678	0
2	2223	376.451578988161	0
2	2228	377.274009792283	0
2	2233	381.351595878729	0
2	2238	381.460601185668	0
2	2243	381.540354870706	0
2	2250	382.144101296438	0
2	2253	382.155109511187	0.001356929238
2	2258	385.592766423675	0
2	2264	386.115212231292	0
2	2269	386.744158897534	0
2	2274	387.109740799114	0
2	2279	387.833886218828	0
2	2284	388.364658197314	0
2	2289	389.956510465772	0
2	2294	390.79392982604	0
2	2299	392.404528992558	0
2	2304	392.852091771675	0
2	2309	393.512291330374	0
2	2314	393.807648467433	0
2	2319	393.959690862887	0
2	2324	394.010063319256	0
2	2329	394.418884942546	0
2	2334	394.533882741162	0
2	2339	395.274721744799	0
2	2344	395.539692249531	0
2	2349	397.114357332752	0
2	2354	398.238003298619	0
2	2359	398.825960001417	0
2	2364	400.166064062534	0
2	2369	400.190284899137	0
2	2374	400.857848170113	0
2	2379	402.779408390745	0
2	2384	403.61388977675	0
2	2389	404.160148011372	0
2	2394	407.731046892661	0
2	2399	409.79556659191	0
2	2404	411.117171206332	0
2	2409	411.433356983603	0
2	2414	412.226353594609	0
2	2419	412.285631965211	0
2	2424	414.014952036365	0
2	2429	414.73168953513	0
2	2434	415.819674512002	0
2	2439	417.304604308132	0
2	2444	417.779966045036	0
2	2449	417.951262956966	0
2	2454	419.162149040304	0
2	2459	419.799394293155	0
2	2464	420.502142996708	0
2	2469	420.988516196383	0
2	2474	422.849122835034	0
2	2479	426.209622159042	0
2	2484	426.904269751157	0
2	2489	426.937392837063	0
2	2494	429.893289960062	0
2	2499	430.029891631919	0
2	2504	432.228061770369	0
2	2509	432.593714176082	0
2	2515	432.83038875027	0.206299182194
2	2520	433.01632414835	0
2	2525	433.069399693294	0
2	2530	433.256098583145	0
2	2535	433.297644073153	0
2	2540	435.417139000828	0
2	2545	438.904346548062	0
2	2550	439.254803479065	0
2	2555	440.093466650786	0
2	2560	442.617220284993	0
2	2565	443.145671568294	0
2	2570	444.271370860498	0
2	2575	444.576832087134	0
2	2580	445.310239650773	0
2	2585	446.020764393877	0
2	2590	448.42129952863	0
2	2595	448.671089501983	0
2	2600	448.765255900492	0
2	2605	448.83466346427	0
2	2610	449.038628090466	0
2	2615	449.121470779367	0
2	2620	449.442898307556	0
2	2625	450.849495323918	0
2	2630	451.254834175564	0
2	2635	451.812485688921	0
2	2640	451.843837495844	0
2	2645	451.989628983422	0
2	2650	453.516087969233	0
2	2655	454.154804048404	0
2	2660	455.924626046408	0
2	2665	456.458626667749	0
2	2670	456.551898664821	0
2	2675	457.484800163474	0
2	2680	460.348492019252	0
2	2685	461.765149218886	0
2	2690	463.076945835984	0
2	2695	463.368383725768	0
2	2700	464.507556693758	0
2	2705	465.386042712157	0
2	2710	466.151899532439	0
2	2715	467.252338978919	0
2	2720	467.64328838198	0
2	2725	467.945842048162	0
2	2730	469.469767094741	0
2	2735	470.260380476605	0
2	2740	471.59600791731	0
2	2745	471.614977146277	0
2	2750	471.977631969281	0
2	2755	472.902464282071	0
2	2760	472.976855831637	0
2	2766	473.272406790483	0
2	2771	473.927007405081	0
2	2776	475.62992337798	0
2	2781	475.901636717954	0
2	2786	477.318074948925	0
2	2791	478.384351129921	0
2	2796	482.049983643762	0
2	2801	484.237443680769	0
2	2806	485.059273677089	0
2	2811	485.154516530925	0
2	2816	485.586538448991	0
2	2821	485.90310943542	0
2	2826	486.037956948371	0
2	2831	486.080318121068	0
2	2836	486.543226713338	0
2	2841	487.011214309108	0
2	2846	487.109088497981	0
2	2851	487.132956049907	0
2	2856	488.491588407181	0
2	2861	489.504398539391	0
2	2866	489.85157384529	0
2	2871	490.154694204398	0
2	2876	491.029236983575	0
2	2881	492.997736226692	0
2	2886	495.458514391232	0
2	2891	496.253991258864	0
2	2896	496.721655381033	0
2	2901	497.271787442843	0
2	2906	497.36121456177	0
2	2911	497.479943058327	0
2	2916	497.565056202343	0
2	2921	497.577406948341	0
2	2926	498.346924661963	0
2	2931	498.500614209638	0
2	2936	500.400486269435	0
2	2941	501.197947506543	0
2	2946	502.164140981157	0
2	2951	502.426907826607	0
2	2956	504.280732449166	0
2	2961	505.19219981015	0
2	2966	505.248505232427	0
2	2971	505.476306093172	0
2	2976	506.131429321567	0
2	2981	507.055330605068	0
2	2986	508.010393963703	0
2	2991	508.16165640648	0
2	2996	508.274730480194	0
2	3001	508.564661323493	0
2	3006	509.40881942156	0
2	3011	509.58652610314	0
2	3017	509.823200677328	0.033006290346
2	3022	510.408882230025	0
2	3027	511.566676277558	0
2	3032	511.710665332701	0
2	3037	511.85651234307	0
2	3042	512.000726243188	0
2	3047	512.460668320817	0
2	3052	512.59765628299	0
2	3057	513.108859308552	0
2	3062	513.534367070515	0
2	3067	515.786861213929	0
2	3072	516.908644947302	0
2	3077	518.260939352254	0
2	3082	518.482556367687	0
2	3087	518.518834419834	0
2	3092	518.545806449613	0
2	3097	519.766922012564	0
2	3102	520.226928597476	0
2	3107	524.449843428326	0
2	3112	524.605177854883	0
2	3117	525.620609104642	0
2	3122	525.723035429744	0
2	3127	526.093900998951	0
2	3132	526.343262676342	0
2	3137	526.60005066799	0
2	3142	527.080053592763	0
2	3147	527.34816265902	0
2	3152	527.462464615429	0
2	3157	528.441831039621	0
2	3162	528.823713237093	0
2	3167	529.489396379749	0
2	3172	529.667662266155	0
2	3177	530.071523377333	0
2	3182	530.718282503119	0
2	3187	532.403570341259	0
2	3192	533.634950849229	0
2	3197	533.687933364236	0
2	3202	534.613834189695	0
2	3207	534.88278989242	0
2	3212	535.1607362033	0
2	3217	536.281830063346	0
2	3222	536.658716705951	0
2	3227	538.798173172367	0
2	3232	539.023844218417	0
2	3237	539.614181766088	0
2	3242	540.550804635411	0
2	3247	540.595237257325	0
2	3252	543.207066824205	0
2	3257	543.454834406935	0
2	3262	544.406104773703	0
2	3268	544.912880218721	0
2	3273	546.305382683128	0
2	3278	546.508835724726	0
2	3283	547.932003549979	0
2	3288	548.07103574485	0
2	3293	548.885334699446	0
2	3298	549.335958122081	0
2	3303	549.380370317357	0
2	3308	549.651491372095	0
2	3313	551.721153656068	0
2	3318	552.1271732803	0
2	3323	552.201918770244	0
2	3328	553.202742760151	0
2	3333	554.419424254726	0
2	3338	555.559497446895	0
2	3343	555.628642705205	0
2	3348	555.728652216175	0
2	3353	556.251520388365	0
2	3358	557.733360415067	0
2	3363	558.822813542119	0
2	3368	559.137640835872	0
2	3373	559.412948252015	0
2	3378	560.248780742242	0
2	3383	561.75032096659	0
2	3388	562.359007984073	0
2	3393	563.456307730201	0
2	3398	565.192389081834	0
2	3403	565.480161929329	0
2	3408	566.774032200082	0
2	3413	567.969591138683	0
2	3418	568.763565123178	0
2	3423	570.457497457322	0
2	3428	570.508800437117	0
2	3433	570.676334036632	0
2	3438	570.866603457588	0
2	3443	572.46281085633	0
2	3448	572.580071631936	0
2	3453	573.196282339862	0
2	3458	573.55679380052	0
2	3463	574.307932631194	0
2	3468	575.255267026386	0
2	3473	577.125115716073	0
2	3478	577.288411225728	0
2	3483	577.771114049762	0
2	3488	579.877090284517	0
2	3493	581.113876476365	0
2	3498	581.274153330124	0
2	3503	582.565116704379	0
2	3508	585.371666148305	0
2	3513	585.85269976114	0
2	3519	587.522005377363	0
2	3524	588.785887593858	0
2	3529	588.901803582858	0
2	3534	588.95558262866	0
2	3539	589.394574667627	0
2	3544	590.930185479191	0
2	3549	591.475484297904	0
2	3554	591.752506211707	0
2	3559	592.121505664593	0
2	3564	592.270792124998	0
2	3569	592.388466286144	0
2	3574	593.570770249602	0
2	3579	594.654789459409	0
2	3584	595.591112906383	0
2	3589	595.765122167866	0
2	3594	596.646926090081	0
2	3599	596.853580903234	0
2	3604	596.912048989245	0
2	3609	597.720531604677	0
2	3614	598.932028729508	0
2	3619	599.197901549137	0
2	3624	599.431632248894	0
2	3629	600.293906459026	0
2	3634	601.02631742313	0
2	3639	601.05343712895	0
2	3644	602.065844680328	0
2	3649	602.32029014932	0
2	3654	603.014726546772	0
2	3659	604.022801453885	0
2	3664	604.125847942959	0
2	3669	604.171550238812	0
2	3674	604.815999360507	0
2	3679	605.077821706711	0
2	3684	605.821118857132	0
2	3689	608.422953718378	0
2	3694	608.468750544103	0
2	3699	608.517487397566	0
2	3704	609.417770832197	0
2	3709	609.667768137206	0
2	3714	611.306366388987	0
2	3719	611.714006686963	0
2	3724	612.33084885279	0
2	3729	613.558808645273	0
2	3734	614.382120305988	0
2	3739	615.617233094499	0
2	3744	616.853147228691	0
2	3749	617.653753668057	0
2	3754	618.111018669832	0
2	3759	618.171963319982	0
2	3764	618.393425413871	0
2	3770	618.786154404503	0
2	3775	618.994845667477	0
2	3780	619.598375462685	0
2	3785	620.503451672385	0
2	3790	621.09530848882	0
2	3795	621.974810207794	0
2	3800	622.610816022328	0
2	3805	624.199710446032	0
2	3810	624.994437392362	0
2	3815	625.532806961439	0
2	3820	627.526621117306	0
2	3825	627.955716890039	0
2	3830	628.100116127784	0
2	3835	629.287342857827	0
2	3840	632.078818583593	0
2	3845	632.78547041807	0
2	3850	633.619846691196	0
2	3855	634.972883528975	0
2	3860	635.989450795154	0
2	3865	638.541158092368	0
2	3870	639.636321977412	0
2	3875	641.963204362437	0
2	3880	642.082863212496	0
2	3885	642.266697925423	0
2	3890	643.762953416279	0
2	3895	644.456056842114	0
2	3900	645.611945773233	0
2	3905	646.597544088957	0
2	3910	648.214049767622	0
2	3915	648.551891572727	0
2	3920	648.71591414723	0
2	3925	649.005138192838	0
2	3930	649.598294053966	0
2	3935	649.821567201657	0
2	3940	650.694433420611	0
2	3945	650.807630916895	0
2	3950	650.821164924215	0
2	3955	650.99423534803	0
2	3960	651.404451116337	0
2	3965	651.576164967019	0
2	3970	652.03814914301	0
2	3975	652.857925688063	0
2	3980	653.602242446113	0
2	3985	653.938419955847	0
2	3990	654.199920310583	0
2	3995	655.169194395882	0
2	4000	655.994797318188	0
2	4005	658.662039236146	0
2	4010	661.780735020919	0
2	4015	663.422083828615	0
2	4021	663.893541033148	0
2	4026	663.958691936932	0
2	4031	665.71326772969	0
2	4036	666.219537121135	0
2	4041	666.980837200129	0
2	4046	667.998418140128	0
2	4051	668.881415836802	0
2	4056	669.140367401366	0
2	4061	669.952792263526	0
2	4066	670.201407386422	0
2	4071	670.450551014639	0
2	4076	672.337204843954	0
2	4081	675.128723779907	0
2	4086	676.174733399045	0
2	4091	676.301289713318	0
2	4096	676.644450233202	0
2	4101	677.339461707537	0
2	4106	678.234989535185	0
2	4111	680.155366264352	0
2	4116	680.283598638204	0
2	4121	683.26901433606	0
2	4126	684.210637223401	0
2	4131	684.54640905931	0
2	4136	686.405951884296	0
2	4141	686.990566649569	0
2	4146	687.028978748779	0
2	4151	687.571176304941	0
2	4156	688.556858499566	0
2	4161	688.881081160156	0
2	4166	688.894006864764	0
2	4171	689.050848846126	0
2	4176	689.950672571459	0
2	4181	693.017976421337	0
2	4186	693.346023821989	0
2	4191	693.418798564036	0
2	4196	694.14034446563	0
2	4201	694.179042394197	0
2	4206	694.219760761116	0
2	4211	694.832149184961	0
2	4216	695.954878369908	0
2	4221	696.994063430075	0
2	4226	698.518173116602	0
2	4231	698.846257137787	0
2	4236	701.553888380499	0
2	4241	701.994020875811	0
2	4246	702.634933016653	0
2	4251	702.781851352714	0
2	4256	704.232490887557	0
2	4263	705.947142719639	0
2	4266	705.958150934388	0.004572196141
2	4272	706.557815390636	0
2	4277	706.74831129511	0
2	4282	707.541325393628	0
2	4287	711.170133621158	0
2	4292	711.242967992347	0
2	4297	711.514267284703	0
2	4302	711.615855012628	0
2	4307	712.258622934935	0
2	4312	714.017310196086	0
2	4317	717.050616928738	0
2	4322	717.715478195702	0
2	4327	718.211166892382	0
2	4332	721.36889927542	0
2	4337	724.146082672316	0
2	4342	728.307506116824	0
2	4347	730.911197470334	0
2	4352	731.114582933236	0
2	4357	731.932693415523	0
2	4362	733.957268723426	0
2	4367	734.248724303242	0
2	4372	734.305754218009	0
2	4377	734.326048647405	0
2	4382	736.693137129933	0
2	4387	737.497107585642	0
2	4392	738.822550302009	0
2	4397	738.868067512282	0
2	4402	739.068502801081	0
2	4407	739.272395504601	0
2	4414	739.956796397638	0
2	4417	739.967804612387	0.006843673121
2	4422	741.243587964925	0
2	4427	741.517634444829	0
2	4432	743.380656545781	0
2	4437	743.977708248689	0
2	4442	744.429369427665	0
2	4447	745.204312437422	0
2	4452	745.740076942738	0
2	4457	746.789204206538	0
2	4462	746.862562404981	0
2	4467	747.726168795939	0
2	4472	748.034159647229	0
2	4477	748.244532159677	0
2	4482	751.564536154652	0
2	4487	751.951678625695	0
2	4492	752.105795491272	0
2	4497	752.264269895251	0
2	4502	752.949569928183	0
2	4507	753.875123010799	0
2	4512	755.349568622556	0
2	4517	755.947801764217	0
2	4523	756.428210989775	0
2	4528	756.478585710532	0
2	4533	756.502479648339	0
2	4538	756.556479681394	0
2	4543	756.63461597399	0
2	4548	757.194130038024	0
2	4553	758.434503121183	0
2	4558	759.189241460812	0
2	4563	759.262813725494	0
2	4568	760.589866192751	0
2	4573	761.040102654071	0
2	4578	761.4445670478	0
2	4583	761.770988367705	0
2	4588	762.65023213105	0
2	4593	762.801140634886	0
2	4598	763.274093365444	0
2	4603	764.153909859919	0
2	4608	764.26536395686	0
2	4613	764.715323367933	0
2	4618	765.006590250592	0
2	4623	765.945786748446	0
2	4628	766.301152025528	0
2	4633	767.932969530374	0
2	4638	768.272949604016	0
2	4643	768.291932257359	0
2	4648	768.351871546175	0
2	4653	769.254520212483	0
2	4658	769.776024215923	0
2	4663	770.003938065052	0
2	4668	770.817369992144	0
2	4673	770.890804570224	0
2	4678	770.999036951032	0
2	4683	771.268448434733	0
2	4688	771.948640958567	0
2	4693	772.940479310296	0
2	4698	774.61268804681	0
2	4703	774.794399229302	0
2	4708	775.701758104492	0
2	4713	776.318095192717	0
2	4718	776.684156433672	0
2	4723	777.028404987613	0
2	4728	779.279326075953	0
2	4733	779.409094666362	0
2	4738	780.271039281467	0
2	4743	780.341517129383	0
2	4748	782.371537215842	0
2	4753	782.566526751551	0
2	4758	783.927563422386	0
2	4763	786.192576600093	0
2	4768	788.633409409896	0
2	4774	789.361329674533	0
2	4779	789.723053964598	0
2	4784	789.837510329425	0
2	4789	790.578523273059	0
2	4794	791.515965892482	0
2	4799	792.416156251732	0
2	4804	792.500657121491	0
2	4809	792.65544872744	0
2	4814	793.394942950171	0
2	4819	794.457325973394	0
2	4824	795.064425586403	0
2	4829	795.213476689629	0
2	4834	796.956991725764	0
2	4839	797.305602761699	0
2	4844	799.439611872824	0
2	4849	799.956475348941	0
2	4854	800.462583505897	0
2	4859	802.959887827797	0
2	4864	803.491074561979	0
2	4869	804.367581840311	0
2	4874	805.092798267393	0
2	4879	806.199998793863	0
2	4884	807.032391728557	0
2	4889	807.336453697523	0
2	4894	808.701525716358	0
2	4899	808.733155226571	0
2	4904	809.247914663727	0
2	4909	810.032905923456	0
2	4914	810.527681914617	0
2	4919	811.041609269111	0
2	4924	811.549394489245	0
2	4929	811.606969158047	0
2	4934	812.104631079325	0
2	4939	813.933207925172	0
2	4944	814.916255033612	0
2	4949	815.18743687993	0
2	4954	815.376998176592	0
2	4959	816.034559610194	0
2	4964	817.154996600573	0
2	4969	818.631376047685	0
2	4974	819.571045615827	0
2	4979	819.853568248869	0
2	4984	820.665969444682	0
2	4989	824.940619142551	0
2	4994	825.181430568873	0
2	4999	825.866426250891	0
2	5004	825.929774402216	0
2	5009	826.648557920954	0
2	5014	827.384278653696	0
2	5019	827.41429156863	0
2	5025	829.750511262802	0
2	5030	832.818974396878	0
2	5035	832.991832689761	0
2	5040	833.201324275358	0
2	5045	834.086710468146	0
2	5050	834.645262351733	0
2	5055	835.434242858677	0
2	5060	835.835355863136	0
2	5065	837.092399139679	0
2	5070	837.276286251127	0
2	5075	837.959035187748	0
2	5080	838.237321985178	0
2	5085	839.395386958804	0
2	5090	840.243829995544	0
2	5095	841.327415799566	0
2	5100	843.495225909277	0
2	5105	844.155045077487	0
2	5110	846.021330683474	0
2	5115	846.227504038976	0
2	5120	847.023984302442	0
2	5125	850.454628440774	0
2	5130	851.012499192807	0
2	5135	851.498256285736	0
2	5140	851.853779933797	0
2	5145	854.122502658351	0
2	5150	854.276196940365	0
2	5155	855.121085460746	0
2	5160	856.325678172831	0
2	5165	857.930462505911	0
2	5170	858.371116262108	0
2	5175	859.070194557223	0
2	5180	861.967997451552	0
2	5185	862.859524024728	0
2	5190	863.766190274155	0
2	5195	863.787975880353	0
2	5200	864.649750984511	0
2	5205	865.258032295942	0
2	5210	866.5660453984	0
2	5215	867.608578392786	0
2	5220	869.651718674901	0
2	5225	870.005217235159	0
2	5230	870.153626240027	0
2	5235	872.219668411807	0
2	5240	874.464062409583	0
2	5245	874.946626647546	0
2	5250	875.114183956638	0
2	5255	875.285355762062	0
2	5260	877.051208177689	0
2	5265	878.825610518307	0
2	5270	880.050519841245	0
2	5276	883.505922982666	0
2	5281	883.677871403301	0
2	5286	884.08227548168	0
2	5291	884.248816728601	0
2	5296	886.6331344875	0
2	5301	887.097135078825	0
2	5306	892.844908493536	0
2	5311	894.009243871242	0
2	5316	894.568378083711	0
2	5321	894.783129331392	0
2	5326	895.206219428578	0
2	5331	895.24310483473	0
2	5336	896.348968267434	0
2	5341	896.643354906879	0
2	5348	897.618412125276	0
2	5351	897.629420340025	0.009277906256
2	5358	898.354568497013	0
2	5361	898.365576711762	0.002235602266
2	5366	898.565578398639	0
2	5371	898.608177947457	0
2	5376	898.795622473681	0
2	5381	899.343809315759	0
2	5386	899.388328616218	0
2	5391	900.12852245117	0
2	5396	900.691404959753	0
2	5401	900.929276824565	0
2	5406	901.60567345539	0
2	5411	902.317061484122	0
2	5416	903.812680518777	0
2	5421	904.897935155628	0
2	5426	905.4041686425	0
2	5431	906.465568233991	0
2	5436	907.901049387891	0
2	5441	910.626540131416	0
2	5446	911.072644656448	0
2	5451	913.437084040452	0
2	5456	913.720266639409	0
2	5461	913.945662224736	0
2	5466	914.063736925952	0
2	5471	915.969925371158	0
2	5476	916.633856928659	0
2	5481	917.811535780044	0
2	5486	917.889740168837	0
2	5491	918.459292370364	0
2	5496	919.230202378555	0
2	5501	919.50272822467	0
2	5506	919.752085169897	0
2	5511	923.323517165273	0
2	5516	923.543749224752	0
2	5521	924.056459576955	0
2	5527	924.293134151143	0.079770117027
2	5532	924.933550825358	0
2	5537	925.054855440908	0
2	5542	926.836447380682	0
2	5547	927.981613380981	0
2	5552	929.006249259458	0
2	5557	929.824209180268	0
2	5562	932.337754471608	0
2	5567	933.318294304079	0
2	5572	933.613068719478	0
2	5577	935.033489419767	0
2	5582	935.255965305918	0
2	5587	936.045156130685	0
2	5592	936.461696869222	0
2	5597	940.389256096296	0
2	5602	941.225295775624	0
2	5607	941.583191238471	0
2	5612	942.111676459607	0
2	5617	942.198711210563	0
2	5622	942.313363202026	0
2	5627	943.199924197994	0
2	5632	943.701299019983	0
2	5637	944.553626679566	0
2	5644	945.479429046697	0
2	5647	945.490437261446	0.005483627983
2	5652	946.165374208729	0
2	5657	947.702819386426	0
2	5662	951.167127293388	0
2	5667	951.911417615497	0
2	5672	952.069480176668	0
2	5677	952.639058757344	0
2	5682	953.043633591529	0
2	5687	953.90576583248	0
2	5692	955.955633696899	0
2	5697	956.0410663688	0
2	5702	956.052949842593	0
2	5707	956.521529566647	0
2	5712	961.060075277084	0
2	5717	961.763885293055	0
2	5722	961.9329529449	0
2	5727	962.960959654049	0
2	5732	963.075634786516	0
2	5737	963.197487827757	0
2	5742	963.397872204419	0
2	5747	966.669580178826	0
2	5752	967.611077198504	0
2	5757	969.885975098357	0
2	5762	969.983807547463	0
2	5767	971.084269830153	0
2	5772	971.201846156586	0
2	5778	971.438520730774	0.127670228544
2	5783	971.527594497574	0
2	5788	971.62476530208	0
2	5793	971.741780174601	0
2	5798	973.284182301829	0
2	5803	974.383776872812	0
2	5808	977.724276201191	0
2	5813	977.748659353554	0
2	5818	978.646630925774	0
2	5823	979.611033434815	0
2	5828	981.506584554766	0
2	5833	981.864510241501	0
2	5838	982.17047891278	0
2	5843	982.339821345963	0
2	5848	982.392073838614	0
2	5853	984.710950395955	0
2	5858	985.327913121231	0
2	5863	988.66478691826	0
2	5868	988.89863017055	0
2	5873	989.282123440601	0
2	5878	990.395313794669	0
2	5883	991.067976065882	0
2	5888	994.001403056533	0
2	5893	994.058474437572	0
2	5898	994.592472893544	0
2	5903	994.762693688445	0
2	5908	996.523210434012	0
2	5913	996.553646337362	0
2	5918	996.674893473924	0
2	5923	996.741895403036	0
2	5928	997.028429923819	0
2	5933	997.321025293298	0
2	5938	997.640088339842	0
2	5943	998.689867822744	0
2	5948	998.947493774734	0
3	5	0.237664841586	0
3	10	0.348243769404	0
3	15	0.726309862282	0
3	20	0.882135003608	0
3	25	1.221429170512	0
3	30	1.507073506473	0
3	35	2.501000076678	0
3	40	3.944224595232	0
3	45	3.988797416909	0
3	50	5.327239238483	0
3	55	5.449493716991	0
3	60	5.543363311018	0
3	65	7.558627960766	0
3	70	9.085524132229	0
3	75	9.742064591208	0
3	80	10.498069571906	0
3	85	11.60412678328	0
3	90	13.046653450731	0
3	95	13.781436619271	0
3	100	14.564090635137	0
3	105	15.864709336655	0
3	110	17.060746954732	0
3	117	18.484660177404	0
3	120	18.495668392153	2
3	125	19.386539160776	0
3	130	20.002700291906	0
3	135	20.225342849685	0
3	140	20.292602526954	0
3	145	20.409271077182	0
[...]
7	2228	377.274009792283	0
7	2233	381.351595878729	0
7	2238	381.460601185668	0
7	2243	381.540354870706	0
7	2250	382.144101296438	0
7	2253	382.155109511187	0
7	2258	385.592766423675	0
7	2264	386.115212231292	0
7	2269	386.744158897534	0
7	2274	387.109740799114	0
7	2279	387.833886218828	0
7	2284	388.364658197314	0
7	2289	389.956510465772	0
7	2294	390.79392982604	0
7	2299	392.404528992558	0
7	2304	392.852091771675	0
7	2309	393.512291330374	0
7	2314	393.807648467433	0
7	2319	393.959690862887	0
7	2324	394.010063319256	0
7	2329	394.418884942546	0
7	2334	394.533882741162	0
7	2339	395.274721744799	0
7	2344	395.539692249531	0
7	2349	397.114357332752	0
7	2354	398.238003298619	0
7	2359	398.825960001417	0
7	2364	400.166064062534	0
7	2369	400.190284899137	0
7	2374	400.857848170113	0
7	2379	402.779408390745	0
7	2384	403.61388977675	0
7	2389	404.160148011372	0
7	2394	407.731046892661	0
7	2399	409.79556659191	0
7	2404	411.117171206332	0
7	2409	411.433356983603	0
7	2414	412.226353594609	0
7	2419	412.285631965211	0
7	2424	414.014952036365	0
7	2429	414.73168953513	0
7	2434	415.819674512002	0
7	2439	417.304604308132	0
7	2444	417.779966045036	0
7	2449	417.951262956966	0
7	2454	419.162149040304	0
7	2459	419.799394293155	0
7	2464	420.502142996708	0
7	2469	420.988516196383	0
7	2474	422.849122835034	0
7	2479	426.209622159042	0
7	2484	426.904269751157	0
7	2489	426.937392837063	0
7	2494	429.893289960062	0
7	2499	430.029891631919	0
7	2504	432.228061770369	0
7	2509	432.593714176082	0
7	2515	432.83038875027	0
7	2520	433.01632414835	0
7	2525	433.069399693294	0
7	2530	433.256098583145	0
7	2535	433.297644073153	0
7	2540	435.417139000828	0
7	2545	438.904346548062	0
7	2550	439.254803479065	0
7	2555	440.093466650786	0
7	2560	442.617220284993	0
7	2565	443.145671568294	0
7	2570	444.271370860498	0
7	2575	444.576832087134	0
7	2580	445.310239650773	0
7	2585	446.020764393877	0
7	2590	448.42129952863	0
7	2595	448.671089501983	0
7	2600	448.765255900492	0
7	2605	448.83466346427	0
7	2610	449.038628090466	0
7	2615	449.121470779367	0
7	2620	449.442898307556	0
7	2625	450.849495323918	0
7	2630	451.254834175564	0
7	2635	451.812485688921	0
7	2640	451.843837495844	0
7	2645	451.989628983422	0
7	2650	453.516087969233	0
7	2655	454.154804048404	0
7	2660	455.924626046408	0
7	2665	456.458626667749	0
7	2670	456.551898664821	0
7	2675	457.484800163474	0
7	2680	460.348492019252	0
7	2685	461.765149218886	0
7	2690	463.076945835984	0
7	2695	463.368383725768	0
7	2700	464.507556693758	0
7	2705	465.386042712157	0
7	2710	466.151899532439	0
7	2715	467.252338978919	0
7	2720	467.64328838198	0
7	2725	467.945842048162	0
7	2730	469.469767094741	0
7	2735	470.260380476605	0
7	2740	471.59600791731	0
7	2745	471.614977146277	0
7	2750	471.977631969281	0
7	2755	472.902464282071	0
7	2760	472.976855831637	0
7	2766	473.272406790483	0
7	2771	473.927007405081	0
7	2776	475.62992337798	0
7	2781	475.901636717954	0
7	2786	477.318074948925	0
7	2791	478.384351129921	0
7	2796	482.049983643762	0
7	2801	484.237443680769	0
7	2806	485.059273677089	0
7	2811	485.154516530925	0
7	2816	485.586538448991	0
7	2821	485.90310943542	0
7	2826	486.037956948371	0
7	2831	486.080318121068	0
7	2836	486.543226713338	0
7	2841	487.011214309108	0
7	2846	487.109088497981	0
7	2851	487.132956049907	0
7	2856	488.491588407181	0
7	2861	489.504398539391	0
7	2866	489.85157384529	0
7	2871	490.154694204398	0
7	2876	491.029236983575	0
7	2881	492.997736226692	0
7	2886	495.458514391232	0
7	2891	496.253991258864	0
7	2896	496.721655381033	0
7	2901	497.271787442843	0
7	2906	497.36121456177	0
7	2911	497.479943058327	0
7	2916	497.565056202343	0
7	2921	497.577406948341	0
7	2926	498.346924661963	0
7	2931	498.500614209638	0
7	2936	500.400486269435	0
7	2941	501.197947506543	0
7	2946	502.164140981157	0
7	2951	502.426907826607	0
7	2956	504.280732449166	0
7	2961	505.19219981015	0
7	2966	505.248505232427	0
7	2971	505.476306093172	0
7	2976	506.131429321567	0
7	2981	507.055330605068	0
7	2986	508.010393963703	0
7	2991	508.16165640648	0
7	2996	508.274730480194	0
7	3001	508.564661323493	0
7	3006	509.40881942156	0
7	3011	509.58652610314	0
7	3017	509.823200677328	0
7	3022	510.408882230025	0
7	3027	511.566676277558	0
7	3032	511.710665332701	0
7	3037	511.85651234307	0
7	3042	512.000726243188	0
7	3047	512.460668320817	0
7	3052	512.59765628299	0
7	3057	513.108859308552	0
7	3062	513.534367070515	0
7	3067	515.786861213929	0
7	3072	516.908644947302	0
7	3077	518.260939352254	0
7	3082	518.482556367687	0
7	3087	518.518834419834	0
7	3092	518.545806449613	0
7	3097	519.766922012564	0
7	3102	520.226928597476	0
7	3107	524.449843428326	0
7	3112	524.605177854883	0
7	3117	525.620609104642	0
7	3122	525.723035429744	0
7	3127	526.093900998951	0
7	3132	526.343262676342	0
7	3137	526.60005066799	0
7	3142	527.080053592763	0
7	3147	527.34816265902	0
7	3152	527.462464615429	0
7	3157	528.441831039621	0
7	3162	528.823713237093	0
7	3167	529.489396379749	0
7	3172	529.667662266155	0
7	3177	530.071523377333	0
7	3182	530.718282503119	0
7	3187	532.403570341259	0
7	3192	533.634950849229	0
7	3197	533.687933364236	0
7	3202	534.613834189695	0
7	3207	534.88278989242	0
7	3212	535.1607362033	0
7	3217	536.281830063346	0
7	3222	536.658716705951	0
7	3227	538.798173172367	0
7	3232	539.023844218417	0
7	3237	539.614181766088	0
7	3242	540.550804635411	0
7	3247	540.595237257325	0
7	3252	543.207066824205	0
7	3257	543.454834406935	0
7	3262	544.406104773703	0
7	3268	544.912880218721	0
7	3273	546.305382683128	0
7	3278	546.508835724726	0
7	3283	547.932003549979	0
7	3288	548.07103574485	0
7	3293	548.885334699446	0
7	3298	549.335958122081	0
7	3303	549.380370317357	0
7	3308	549.651491372095	0
7	3313	551.721153656068	0
7	3318	552.1271732803	0
7	3323	552.201918770244	0
7	3328	553.202742760151	0
7	3333	554.419424254726	0
7	3338	555.559497446895	0
7	3343	555.628642705205	0
7	3348	555.728652216175	0
7	3353	556.251520388365	0
7	3358	557.733360415067	0
7	3363	558.822813542119	0
7	3368	559.137640835872	0
7	3373	559.412948252015	0
7	3378	560.248780742242	0
7	3383	561.75032096659	0
7	3388	562.359007984073	0
7	3393	563.456307730201	0
7	3398	565.192389081834	0
7	3403	565.480161929329	0
7	3408	566.774032200082	0
7	3413	567.969591138683	0
7	3418	568.763565123178	0
7	3423	570.457497457322	0
7	3428	570.508800437117	0
7	3433	570.676334036632	0
7	3438	570.866603457588	0
7	3443	572.46281085633	0
7	3448	572.580071631936	0
7	3453	573.196282339862	0
7	3458	573.55679380052	0
7	3463	574.307932631194	0
7	3468	575.255267026386	0
7	3473	577.125115716073	0
7	3478	577.288411225728	0
7	3483	577.771114049762	0
7	3488	579.877090284517	0
7	3493	581.113876476365	0
7	3498	581.274153330124	0
7	3503	582.565116704379	0
7	3508	585.371666148305	0
7	3513	585.85269976114	0
7	3519	587.522005377363	0
7	3524	588.785887593858	0
7	3529	588.901803582858	0
7	3534	588.95558262866	0
7	3539	589.394574667627	0
7	3544	590.930185479191	0
7	3549	591.475484297904	0
7	3554	591.752506211707	0
7	3559	592.121505664593	0
7	3564	592.270792124998	0
7	3569	592.388466286144	0
7	3574	593.570770249602	0
7	3579	594.654789459409	0
7	3584	595.591112906383	0
7	3589	595.765122167866	0
7	3594	596.646926090081	0
7	3599	596.853580903234	0
7	3604	596.912048989245	0
7	3609	597.720531604677	0
7	3614	598.932028729508	0
7	3619	599.197901549137	0
7	3624	599.431632248894	0
7	3629	600.293906459026	0
7	3634	601.02631742313	0
7	3639	601.05343712895	0
7	3644	602.065844680328	0
7	3649	602.32029014932	0
7	3654	603.014726546772	0
7	3659	604.022801453885	0
7	3664	604.125847942959	0
7	3669	604.171550238812	0
7	3674	604.815999360507	0
7	3679	605.077821706711	0
7	3684	605.821118857132	0
7	3689	608.422953718378	0
7	3694	608.468750544103	0
7	3699	608.517487397566	0
7	3704	609.417770832197	0
7	3709	609.667768137206	0
7	3714	611.306366388987	0
7	3719	611.714006686963	0
7	3724	612.33084885279	0
7	3729	613.558808645273	0
7	3734	614.382120305988	0
7	3739	615.617233094499	0
7	3744	616.853147228691	0
7	3749	617.653753668057	0
7	3754	618.111018669832	0
7	3759	618.171963319982	0
7	3764	618.393425413871	0
7	3770	618.786154404503	0
7	3775	618.994845667477	0
7	3780	619.598375462685	0
7	3785	620.503451672385	0
7	3790	621.09530848882	0
7	3795	621.974810207794	0
7	3800	622.610816022328	0
7	3805	624.199710446032	0
7	3810	624.994437392362	0
7	3815	625.532806961439	0
7	3820	627.526621117306	0
7	3825	627.955716890039	0
7	3830	628.100116127784	0
7	3835	629.287342857827	0
7	3840	632.078818583593	0
7	3845	632.78547041807	0
7	3850	633.619846691196	0
7	3855	634.972883528975	0
7	3860	635.989450795154	0
7	3865	638.541158092368	0
7	3870	639.636321977412	0
7	3875	641.963204362437	0
7	3880	642.082863212496	0
7	3885	642.266697925423	0
7	3890	643.762953416279	0
7	3895	644.456056842114	0
7	3900	645.611945773233	0
7	3905	646.597544088957	0
7	3910	648.214049767622	0
7	3915	648.551891572727	0
7	3920	648.71591414723	0
7	3925	649.005138192838	0
7	3930	649.598294053966	0
7	3935	649.821567201657	0
7	3940	650.694433420611	0
7	3945	650.807630916895	0
7	3950	650.821164924215	0
7	3955	650.99423534803	0
7	3960	651.404451116337	0
7	3965	651.576164967019	0
7	3970	652.03814914301	0
7	3975	652.857925688063	0
7	3980	653.602242446113	0
7	3985	653.938419955847	0
7	3990	654.199920310583	0
7	3995	655.169194395882	0
7	4000	655.994797318188	0
7	4005	658.662039236146	0
7	4010	661.780735020919	0
7	4015	663.422083828615	0
7	4021	663.893541033148	0
7	4026	663.958691936932	0
7	4031	665.71326772969	0
7	4036	666.219537121135	0
7	4041	666.980837200129	0
7	4046	667.998418140128	0
7	4051	668.881415836802	0
7	4056	669.140367401366	0
7	4061	669.952792263526	0
7	4066	670.201407386422	0
7	4071	670.450551014639	0
7	4076	672.337204843954	0
7	4081	675.128723779907	0
7	4086	676.174733399045	0
7	4091	676.301289713318	0
7	4096	676.644450233202	0
7	4101	677.339461707537	0
7	4106	678.234989535185	0
7	4111	680.155366264352	0
7	4116	680.283598638204	0
7	4121	683.26901433606	0
7	4126	684.210637223401	0
7	4131	684.54640905931	0
7	4136	686.405951884296	0
7	4141	686.990566649569	0
7	4146	687.028978748779	0
7	4151	687.571176304941	0
7	4156	688.556858499566	0
7	4161	688.881081160156	0
7	4166	688.894006864764	0
7	4171	689.050848846126	0
7	4176	689.950672571459	0
7	4181	693.017976421337	0
7	4186	693.346023821989	0
7	4191	693.418798564036	0
7	4196	694.14034446563	0
7	4201	694.179042394197	0
7	4206	694.219760761116	0
7	4211	694.832149184961	0
7	4216	695.954878369908	0
7	4221	696.994063430075	0
7	4226	698.518173116602	0
7	4231	698.846257137787	0
7	4236	701.553888380499	0
7	4241	701.994020875811	0
7	4246	702.634933016653	0
7	4251	702.781851352714	0
7	4256	704.232490887557	0
7	4263	705.947142719639	0
7	4266	705.958150934388	0
7	4272	706.557815390636	0
7	4277	706.74831129511	0
7	4282	707.541325393628	0
7	4287	711.170133621158	0
7	4292	711.242967992347	0
7	4297	711.514267284703	0
7	4302	711.615855012628	0
7	4307	712.258622934935	0
7	4312	714.017310196086	0
7	4317	717.050616928738	0
7	4322	717.715478195702	0
7	4327	718.211166892382	0
7	4332	721.36889927542	0
7	4337	724.146082672316	0
7	4342	728.307506116824	0
7	4347	730.911197470334	0
7	4352	731.114582933236	0
7	4357	731.932693415523	0
7	4362	733.957268723426	0
7	4367	734.248724303242	0
7	4372	734.305754218009	0
7	4377	734.326048647405	0
7	4382	736.693137129933	0
7	4387	737.497107585642	0
7	4392	738.822550302009	0
7	4397	738.868067512282	0
7	4402	739.068502801081	0
7	4407	739.272395504601	0
7	4414	739.956796397638	0
7	4417	739.967804612387	0
7	4422	741.243587964925	0
7	4427	741.517634444829	0
7	4432	743.380656545781	0
7	4437	743.977708248689	0
7	4442	744.429369427665	0
7	4447	745.204312437422	0
7	4452	745.740076942738	0
7	4457	746.789204206538	0
7	4462	746.862562404981	0
7	4467	747.726168795939	0
7	4472	748.034159647229	0
7	4477	748.244532159677	0
7	4482	751.564536154652	0
7	4487	751.951678625695	0
7	4492	752.105795491272	0
7	4497	752.264269895251	0
7	4502	752.949569928183	0
7	4507	753.875123010799	0
7	4512	755.349568622556	0
7	4517	755.947801764217	0
7	4523	756.428210989775	0
7	4528	756.478585710532	0
7	4533	756.502479648339	0
7	4538	756.556479681394	0
7	4543	756.63461597399	0
7	4548	757.194130038024	0
7	4553	758.434503121183	0
7	4558	759.189241460812	0
7	4563	759.262813725494	0
7	4568	760.589866192751	0
7	4573	761.040102654071	0
7	4578	761.4445670478	0
7	4583	761.770988367705	0
7	4588	762.65023213105	0
7	4593	762.801140634886	0
7	4598	763.274093365444	0
7	4603	764.153909859919	0
7	4608	764.26536395686	0
7	4613	764.715323367933	0
7	4618	765.006590250592	0
7	4623	765.945786748446	0
7	4628	766.301152025528	0
7	4633	767.932969530374	0
7	4638	768.272949604016	0
7	4643	768.291932257359	0
7	4648	768.351871546175	0
7	4653	769.254520212483	0
7	4658	769.776024215923	0
7	4663	770.003938065052	0
7	4668	770.817369992144	0
7	4673	770.890804570224	0
7	4678	770.999036951032	0
7	4683	771.268448434733	0
7	4688	771.948640958567	0
7	4693	772.940479310296	0
7	4698	774.61268804681	0
7	4703	774.794399229302	0
7	4708	775.701758104492	0
7	4713	776.318095192717	0
7	4718	776.684156433672	0
7	4723	777.028404987613	0
7	4728	779.279326075953	0
7	4733	779.409094666362	0
7	4738	780.271039281467	0
7	4743	780.341517129383	0
7	4748	782.371537215842	0
7	4753	782.566526751551	0
7	4758	783.927563422386	0
7	4763	786.192576600093	0
7	4768	788.633409409896	0
7	4774	789.361329674533	0
7	4779	789.723053964598	0
7	4784	789.837510329425	0
7	4789	790.578523273059	0
7	4794	791.515965892482	0
7	4799	792.416156251732	0
7	4804	792.500657121491	0
7	4809	792.65544872744	0
7	4814	793.394942950171	0
7	4819	794.457325973394	0
7	4824	795.064425586403	0
7	4829	795.213476689629	0
7	4834	796.956991725764	0
7	4839	797.305602761699	0
7	4844	799.439611872824	0
7	4849	799.956475348941	0
7	4854	800.462583505897	0
7	4859	802.959887827797	0
7	4864	803.491074561979	0
7	4869	804.367581840311	0
7	4874	805.092798267393	0
7	4879	806.199998793863	0
7	4884	807.032391728557	0
7	4889	807.336453697523	0
7	4894	808.701525716358	0
7	4899	808.733155226571	0
7	4904	809.247914663727	0
7	4909	810.032905923456	0
7	4914	810.527681914617	0
7	4919	811.041609269111	0
7	4924	811.549394489245	0
7	4929	811.606969158047	0
7	4934	812.104631079325	0
7	4939	813.933207925172	0
7	4944	814.916255033612	0
7	4949	815.18743687993	0
7	4954	815.376998176592	0
7	4959	816.034559610194	0
7	4964	817.154996600573	0
7	4969	818.631376047685	0
7	4974	819.571045615827	0
7	4979	819.853568248869	0
7	4984	820.665969444682	0
7	4989	824.940619142551	0
7	4994	825.181430568873	0
7	4999	825.866426250891	0
7	5004	825.929774402216	0
7	5009	826.648557920954	0
7	5014	827.384278653696	0
7	5019	827.41429156863	0
7	5025	829.750511262802	0
7	5030	832.818974396878	0
7	5035	832.991832689761	0
7	5040	833.201324275358	0
7	5045	834.086710468146	0
7	5050	834.645262351733	0
7	5055	835.434242858677	0
7	5060	835.835355863136	0
7	5065	837.092399139679	0
7	5070	837.276286251127	0
7	5075	837.959035187748	0
7	5080	838.237321985178	0
7	5085	839.395386958804	0
7	5090	840.243829995544	0
7	5095	841.327415799566	0
7	5100	843.495225909277	0
7	5105	844.155045077487	0
7	5110	846.021330683474	0
7	5115	846.227504038976	0
7	5120	847.023984302442	0
7	5125	850.454628440774	0
7	5130	851.012499192807	0
7	5135	851.498256285736	0
7	5140	851.853779933797	0
7	5145	854.122502658351	0
7	5150	854.276196940365	0
7	5155	855.121085460746	0
7	5160	856.325678172831	0
7	5165	857.930462505911	0
7	5170	858.371116262108	0
7	5175	859.070194557223	0
7	5180	861.967997451552	0
7	5185	862.859524024728	0
7	5190	863.766190274155	0
7	5195	863.787975880353	0
7	5200	864.649750984511	0
7	5205	865.258032295942	0
7	5210	866.5660453984	0
7	5215	867.608578392786	0
7	5220	869.651718674901	0
7	5225	870.005217235159	0
7	5230	870.153626240027	0
7	5235	872.219668411807	0
7	5240	874.464062409583	0
7	5245	874.946626647546	0
7	5250	875.114183956638	0
7	5255	875.285355762062	0
7	5260	877.051208177689	0
7	5265	878.825610518307	0
7	5270	880.050519841245	0
7	5276	883.505922982666	0
7	5281	883.677871403301	0
7	5286	884.08227548168	0
7	5291	884.248816728601	0
7	5296	886.6331344875	0
7	5301	887.097135078825	0
7	5306	892.844908493536	0
7	5311	894.009243871242	0
7	5316	894.568378083711	0
7	5321	894.783129331392	0
7	5326	895.206219428578	0
7	5331	895.24310483473	0
7	5336	896.348968267434	0
7	5341	896.643354906879	0
7	5348	897.618412125276	0
7	5351	897.629420340025	0
7	5358	898.354568497013	0
7	5361	898.365576711762	0
7	5366	898.565578398639	0
7	5371	898.608177947457	0
7	5376	898.795622473681	0
7	5381	899.343809315759	0
7	5386	899.388328616218	0
7	5391	900.12852245117	0
7	5396	900.691404959753	0
7	5401	900.929276824565	0
7	5406	901.60567345539	0
7	5411	902.317061484122	0
7	5416	903.812680518777	0
7	5421	904.897935155628	0
7	5426	905.4041686425	0
7	5431	906.465568233991	0
7	5436	907.901049387891	0
7	5441	910.626540131416	0
7	5446	911.072644656448	0
7	5451	913.437084040452	0
7	5456	913.720266639409	0
7	5461	913.945662224736	0
7	5466	914.063736925952	0
7	5471	915.969925371158	0
7	5476	916.633856928659	0
7	5481	917.811535780044	0
7	5486	917.889740168837	0
7	5491	918.459292370364	0
7	5496	919.230202378555	0
7	5501	919.50272822467	0
7	5506	919.752085169897	0
7	5511	923.323517165273	0
7	5516	923.543749224752	0
7	5521	924.056459576955	0
7	5527	924.293134151143	0
7	5532	924.933550825358	0
7	5537	925.054855440908	0
7	5542	926.836447380682	0
7	5547	927.981613380981	0
7	5552	929.006249259458	0
7	5557	929.824209180268	0
7	5562	932.337754471608	0
7	5567	933.318294304079	0
7	5572	933.613068719478	0
7	5577	935.033489419767	0
7	5582	935.255965305918	0
7	5587	936.045156130685	0
7	5592	936.461696869222	0
7	5597	940.389256096296	0
7	5602	941.225295775624	0
7	5607	941.583191238471	0
7	5612	942.111676459607	0
7	5617	942.198711210563	0
7	5622	942.313363202026	0
7	5627	943.199924197994	0
7	5632	943.701299019983	0
7	5637	944.553626679566	0
7	5644	945.479429046697	0
7	5647	945.490437261446	0
7	5652	946.165374208729	0
7	5657	947.702819386426	0
7	5662	951.167127293388	0
7	5667	951.911417615497	0
7	5672	952.069480176668	0
7	5677	952.639058757344	0
7	5682	953.043633591529	0
7	5687	953.90576583248	0
7	5692	955.955633696899	0
7	5697	956.0410663688	0
7	5702	956.052949842593	0
7	5707	956.521529566647	0
7	5712	961.060075277084	0
7	5717	961.763885293055	0
7	5722	961.9329529449	0
7	5727	962.960959654049	0
7	5732	963.075634786516	0
7	5737	963.197487827757	0
7	5742	963.397872204419	0
7	5747	966.669580178826	0
7	5752	967.611077198504	0
7	5757	969.885975098357	0
7	5762	969.983807547463	0
7	5767	971.084269830153	0
7	5772	971.201846156586	0
7	5778	971.438520730774	0
7	5783	971.527594497574	0
7	5788	971.62476530208	0
7	5793	971.741780174601	0
7	5798	973.284182301829	0
7	5803	974.383776872812	0
7	5808	977.724276201191	0
7	5813	977.748659353554	0
7	5818	978.646630925774	0
7	5823	979.611033434815	0
7	5828	981.506584554766	0
7	5833	981.864510241501	0
7	5838	982.17047891278	0
7	5843	982.339821345963	0
7	5848	982.392073838614	0
7	5853	984.710950395955	0
7	5858	985.327913121231	0
7	5863	988.66478691826	0
7	5868	988.89863017055	0
7	5873	989.282123440601	0
7	5878	990.395313794669	0
7	5883	991.067976065882	0
7	5888	994.001403056533	0
7	5893	994.058474437572	0
7	5898	994.592472893544	0
7	5903	994.762693688445	0
7	5908	996.523210434012	0
7	5913	996.553646337362	0
7	5918	996.674893473924	0
7	5923	996.741895403036	0
7	5928	997.028429923819	0
7	5933	997.321025293298	0
7	5938	997.640088339842	0
7	5943	998.689867822744	0
7	5948	998.947493774734	0
8	116	18.484660177404	0.007408901877
8	372	57.209953261826	0.006626668899
8	504	79.584187265389	0.054017101534
8	924	154.338000085593	0.008527407371
8	964	159.552440954832	0.000905385899
8	1006	165.485964207608	0.137343207803
8	1257	208.319296078358	0.113696299278
8	1508	255.587941711638	0.098260231659
8	1717	291.140467070216	0.00674098223
8	1953	332.756475320891	0.00875434954
8	2249	382.144101296438	0.001356929238
8	2512	432.819380535521	0.206299182194
8	3014	509.812192462579	0.033006290346
8	4262	705.947142719639	0.004572196141
8	4413	739.956796397638	0.006843673121
8	5347	897.618412125276	0.009277906256
8	5357	898.354568497013	0.002235602266
8	5524	924.282125936394	0.079770117027
8	5643	945.479429046697	0.005483627983
8	5775	971.427512516025	0.127670228544

