version 2
run General-83-20240201-11:04:17-40057
attr configname General
attr datetime 20240201-11:04:17
attr experiment General
attr inifile main.ini
attr iterationvars "$0=2.0, $1=3.5, $2=50"
attr iterationvarsf 2.0,3.5,50-
attr measurement "$0=2.0, $1=3.5, $2=50"
attr network Rete
attr processid 40057
attr repetition 3
attr replication #3
attr resultdir results
attr runnumber 83
attr seedset 83
param Rete.lambda 2.0
param Rete.a 0.3s
param Rete.b 3.5s
param Rete.c 0.1s
param Rete.d 0.3s
param Rete.mu 3.0
param Rete.source2.interArrivalTime exponential(1s/lambda)
param Rete.source2.jobServiceTime exponential(1s/mu)
param Rete.source2.deadline uniform(a,b)
param Rete.server2.j 50
param Rete.server2.V uniform(c,d)

vector 0 Rete.passiveQueue queueLength:vector ETV
attr interpolationmode sample-hold
attr title "queue length, vector"
vector 1 Rete.sink lifeTime:vector ETV
attr interpolationmode none
attr title "lifetime of arrived jobs, vector"
attr unit s
vector 2 Rete.sink totalQueueingTime:vector ETV
attr interpolationmode none
attr title "the total time spent in queues by arrived jobs, vector"
attr unit s
vector 3 Rete.sink queuesVisited:vector ETV
attr interpolationmode none
attr title "the total number of queues visited by arrived jobs, vector"
vector 4 Rete.sink totalServiceTime:vector ETV
attr interpolationmode none
attr title "the total time spent  by arrived jobs, vector"
attr unit s
vector 5 Rete.sink totalDelayTime:vector ETV
attr interpolationmode none
attr title "the total time spent in delay nodes by arrived jobs, vector"
attr unit s
vector 6 Rete.sink delaysVisited:vector ETV
attr interpolationmode none
attr title "the total number of delays visited by arrived jobs, vector"
vector 7 Rete.sink generation:vector ETV
attr interpolationmode none
attr title "the generation of the arrived jobs, vector"
vector 8 Rete.passiveQueue queueingTime:vector ETV
attr interpolationmode none
attr title "queueing time at dequeue, vector"
attr unit s
0	0	0	0
0	20	2.790641395662	1
0	21	3.014502916237	0
0	30	3.709650560168	1
0	32	3.930210288913	2
0	33	4.052714356275	1
0	37	4.1738595625	2
0	39	4.418339500593	3
0	40	4.436494713603	2
0	44	4.539104820475	3
0	45	4.820275070931	2
0	48	5.204055428259	1
0	52	5.219241084008	2
0	53	5.587835785587	1
0	57	5.682466163841	2
0	59	5.848485563807	3
0	61	5.850542357943	4
0	62	5.971616142915	3
0	66	6.024666628693	4
0	68	6.034927868135	5
0	69	6.355396500243	4
0	73	6.461575171972	5
0	74	6.739176857571	4
0	78	6.781995368263	5
0	80	6.806130854416	6
0	81	7.122957214899	5
0	84	7.506737572227	4
0	88	7.61189974454	5
0	90	7.856663554053	6
0	91	7.890517929555	5
0	93	7.890517929555	4
0	96	8.002198661413	5
0	97	8.274298286883	4
0	100	8.658078644211	3
0	102	8.658078644211	2
0	105	8.901823751274	3
0	106	9.041859001539	2
0	110	9.119677069185	3
0	111	9.425639358867	2
0	115	9.487774425391	3
0	117	9.554291007751	4
0	119	9.62250133704	5
0	120	9.809419716195	4
0	124	9.86313662061	5
0	126	10.131143262	6
0	127	10.193200073523	5
0	130	10.576980430851	4
0	134	10.670962024795	5
0	135	10.960760788179	4
0	138	11.344541145507	3
0	142	11.530654173146	4
0	144	11.669535140008	5
0	145	11.728321502835	4
0	147	11.728321502835	3
0	150	11.880827704931	4
0	151	12.112101860163	3
0	155	12.155695587578	4
0	156	12.495882217491	3
0	159	12.879662574819	2
0	162	13.263442932147	1
0	166	13.393365254527	2
0	167	13.647223289475	1
0	171	13.986692088679	2
0	172	14.031003646803	1
0	176	14.090479260084	2
0	178	14.248746261793	3
0	180	14.262605013992	4
0	182	14.345429741338	5
0	183	14.414784004131	4
0	187	14.480798553329	5
0	188	14.798564361459	4
0	192	14.968745292387	5
0	193	15.182344718787	4
0	196	15.566125076115	3
0	200	15.604793666654	4
0	201	15.949905433443	3
0	204	16.333685790771	2
0	206	16.333685790771	1
0	209	16.458230804647	2
0	211	16.615052275537	3
0	213	16.664517286404	4
0	214	16.717466148099	3
0	218	17.082309416248	4
0	219	17.101246505427	3
0	223	17.438448330554	4
0	224	17.485026862755	3
0	227	17.868807220083	2
0	231	17.935531594723	3
0	233	18.053648695892	4
0	235	18.173134425535	5
0	237	18.183300542509	6
0	238	18.252587577411	5
0	241	18.636367934739	4
0	245	18.853342556808	5
0	246	19.020148292067	4
0	249	19.403928649395	3
0	252	19.787709006723	2
0	255	20.171489364051	1
0	257	20.171489364051	0
0	260	20.326599566308	1
0	262	20.53956116272	2
0	263	20.555269721379	1
0	267	20.720942281525	2
0	269	20.917382373915	3
0	272	21.205932202086	2
0	275	21.540429683186	3
0	276	21.589712559414	2
0	280	21.731121875393	3
0	281	21.973492916742	2
0	285	21.993720298031	3
0	286	22.35727327407	2
0	289	22.741053631398	1
0	292	23.124833988726	0
0	306	25.27327016905	1
0	308	25.340849410348	2
0	310	25.542064076315	3
0	311	25.596126237917	2
0	314	25.979906595245	1
0	318	25.99806900445	2
0	319	26.363686952573	1
0	322	26.747467309901	0
0	346	32.066989874894	1
0	348	32.307901533506	2
0	349	32.3510124271	1
0	353	32.382872930011	2
0	355	32.518619084214	3
0	356	32.734792784428	2
0	359	33.118573141756	1
0	363	33.138300615507	2
0	365	33.348357525135	3
0	366	33.502353499084	2
0	370	33.883359244364	3
0	371	33.886133856412	2
0	374	34.26991421374	1
0	378	34.456737155983	2
0	379	34.653694571068	1
0	383	34.929113932064	2
0	384	35.037474928396	1
0	388	35.192694049962	2
0	389	35.421255285724	1
0	393	35.5391466926	2
0	395	35.667292625833	3
0	396	35.805035643052	2
0	399	36.18881600038	1
0	402	36.572596357708	0
0	411	39.270677768775	1
0	412	39.652972485183	0
0	416	39.943149225851	1
0	417	40.036752842511	0
0	466	47.842647009081	1
0	467	48.110397411841	0
0	486	50.903712713451	1
0	487	51.068102914051	0
0	491	51.074895795547	1
0	492	51.451883271379	0
0	496	51.47013404491	1
0	497	51.835663628707	0
0	501	52.10287123097	1
0	503	52.132157831013	2
0	504	52.219443986035	1
0	507	52.603224343363	0
0	511	52.710264151279	1
0	513	52.89383436231	2
0	514	52.987004700691	1
0	520	53.382800474964	2
0	521	53.637667181398	1
0	524	53.721692214335	2
0	525	54.021447538726	1
0	528	54.405227896054	0
0	532	54.465091526658	1
0	534	54.708748900138	2
0	535	54.789008253382	1
0	539	55.116285817591	2
0	540	55.17278861071	1
0	544	55.446583352738	2
0	545	55.556568968038	1
0	549	55.595072697107	2
0	551	55.673905134562	3
0	552	55.940349325366	2
0	555	56.324129682694	1
0	559	56.421387566556	2
0	561	56.564182966229	3
0	562	56.707910040022	2
0	565	57.09169039735	1
0	568	57.475470754678	0
0	572	57.842049565139	1
0	573	57.859251112006	0
0	582	59.162940249466	1
0	583	59.362387594152	0
0	587	59.680716681198	1
0	588	59.74616795148	0
0	592	59.791870806821	1
0	593	60.129948308808	0
0	602	60.739482075172	1
0	603	60.977976823519	0
0	607	61.152296488767	1
0	608	61.361757180847	0
0	612	61.549992824557	1
0	613	61.745537538175	0
0	622	62.586216088878	1
0	624	62.599230697441	2
0	626	62.914612635554	3
0	627	62.964408781112	2
0	631	63.118490933857	3
0	632	63.34818913844	2
0	636	63.529524505767	3
0	638	63.536801715891	4
0	639	63.731969495768	3
0	643	63.973506283084	4
0	644	64.115749853096	3
0	648	64.387195251613	4
0	649	64.499530210424	3
0	653	64.59151561876	4
0	655	64.702105062637	5
0	656	64.883310567752	4
0	659	65.26709092508	3
0	663	65.385675356672	4
0	665	65.449527813668	5
0	666	65.650871282408	4
0	670	65.934299132679	5
0	671	66.034651639736	4
0	674	66.418431997064	3
0	677	66.802212354392	2
0	681	66.822629693588	3
0	682	67.18599271172	2
0	684	67.18599271172	1
0	686	67.569773069048	0
0	690	67.882058361002	1
0	691	67.953553426376	0
0	695	67.960568564714	1
0	696	68.337333783704	0
0	700	68.659180845106	1
0	701	68.721114141032	0
0	725	72.442447733593	1
0	726	72.458822862706	0
0	740	74.995455549166	1
0	741	75.014712492697	0
0	745	75.351525774156	1
0	747	75.394678338375	2
0	748	75.398492850025	1
0	752	75.408791472857	2
0	754	75.589385908538	3
0	756	75.709244483371	4
0	757	75.782273207353	3
0	761	75.910309572675	4
0	762	76.166053564681	3
0	766	76.249207300439	4
0	767	76.549833922009	3
0	771	76.655021975082	4
0	773	76.725599825101	5
0	774	76.933614279337	4
0	779	77.584276760044	3
0	781	77.968057117372	2
0	784	78.3518374747	1
0	787	78.735617832028	0
0	809	82.341401746576	1
0	810	82.506537199966	0
0	814	82.690577251285	1
0	816	82.746051241382	2
0	818	82.75452077257	3
0	819	82.890317557294	2
0	823	83.096279049333	3
0	825	83.252723693253	4
0	826	83.274097914622	3
0	830	83.376898074321	4
0	831	83.65787827195	3
0	834	84.041658629278	2
0	837	84.425438986606	1
0	840	84.809219343934	0
0	844	85.114423784455	1
0	845	85.192999701262	0
0	849	85.199912403085	1
0	851	85.258529162269	2
0	852	85.57678005859	1
0	856	85.700429826672	2
0	857	85.960560415918	1
0	861	86.189867844513	2
0	862	86.344340773246	1
0	865	86.728121130574	0
0	869	86.827353879334	1
0	870	87.111901487902	0
0	874	87.310012388816	1
0	875	87.49568184523	0
0	879	87.831100423813	1
0	880	87.879462202558	0
0	889	88.397630138036	1
0	890	88.732024862938	0
0	899	89.785462956929	1
0	901	89.925135636475	2
0	902	90.054031351813	1
0	905	90.437811709141	0
0	909	90.580433636148	1
0	910	90.821592066469	0
0	914	90.955151421871	1
0	916	91.064282994588	2
0	917	91.205372423797	1
0	920	91.589152781125	0
0	924	91.959473638829	1
0	925	91.972933138453	0
0	944	93.644691127743	1
0	945	93.993263177428	0
0	949	94.108481981121	1
0	950	94.377043534756	0
0	954	94.581705972078	1
0	955	94.760823892084	0
0	964	95.800683794949	1
0	965	96.127863473743	0
0	974	96.966001023636	1
0	975	97.076981985931	0
0	984	98.140451229936	1
0	986	98.226354392598	2
0	987	98.239147275731	1
0	991	98.437241602665	2
0	992	98.622927633059	1
0	996	98.636468227258	2
0	997	99.006707990387	1
0	1001	99.289659950112	2
0	1003	99.301937365486	3
0	1004	99.390488347715	2
0	1007	99.774268705043	1
0	1011	100.151282388874	2
0	1012	100.158049062371	1
0	1016	100.174581566039	2
0	1017	100.541829419699	1
0	1021	100.822238656884	2
0	1022	100.925609777027	1
0	1026	101.199457927002	2
0	1030	101.480556993104	3
0	1031	101.576272257734	2
0	1033	101.960052615062	1
0	1037	102.141137424085	2
0	1038	102.34383297239	1
0	1042	102.667727527197	2
0	1043	102.727613329718	1
0	1047	102.78662037091	2
0	1048	103.111393687046	1
0	1052	103.175610010463	2
0	1054	103.230352181581	3
0	1056	103.257519847061	4
0	1057	103.495174044374	3
0	1061	103.629885024872	4
0	1062	103.878954401702	3
0	1066	103.951314762815	4
0	1067	104.26273475903	3
0	1070	104.646515116358	2
0	1073	105.030295473686	1
0	1076	105.414075831014	0
0	1090	107.515287899109	1
0	1091	107.675877141847	0
0	1100	108.567225083797	1
0	1101	108.619462493697	0
0	1105	108.633564312255	1
0	1106	109.003242851025	0
0	1120	110.306894758635	1
0	1122	110.580505948893	2
0	1123	110.665482349216	1
0	1126	111.049262706544	0
0	1130	111.187411957466	1
0	1131	111.433043063872	0
0	1135	111.67572256239	1
0	1137	111.782903389393	2
0	1138	111.8168234212	1
0	1142	111.944534838956	2
0	1143	112.200603778528	1
0	1147	112.269024166613	2
0	1149	112.524441564621	3
0	1150	112.584384135856	2
0	1154	112.621058046049	3
0	1156	112.6844241549	4
0	1157	112.968164493184	3
0	1161	113.077343299941	4
0	1162	113.351944850512	3
0	1165	113.73572520784	2
0	1168	114.119505565168	1
0	1172	114.422970340387	2
0	1173	114.503285922496	1
0	1177	114.692135595917	2
0	1178	114.887066279824	1
0	1182	115.167856246878	2
0	1183	115.270846637152	1
0	1186	115.65462699448	0
0	1200	118.785964308518	1
0	1202	118.872931195806	2
0	1203	118.936814462423	1
0	1207	119.026642350523	2
0	1209	119.290012998829	3
0	1210	119.320594819751	2
0	1213	119.704375177079	1
0	1216	120.088155534407	0
0	1220	120.159600646555	1
0	1221	120.471935891735	0
0	1235	122.252935636593	1
0	1236	122.455439834551	0
0	1245	123.257115148488	1
0	1246	123.325888639773	0
0	1250	123.385821728448	1
0	1251	123.709668997101	0
0	1255	123.812572988826	1
0	1257	123.89476172818	2
0	1258	124.093449354429	1
0	1261	124.477229711757	0
0	1270	124.991647733067	1
0	1271	125.249412599062	0
0	1275	125.379814087424	1
0	1277	125.569125593216	2
0	1280	125.900075079769	1
0	1282	126.283855437097	0
0	1291	127.707068171053	1
0	1292	127.726083426992	0
0	1296	127.822669282474	1
0	1298	127.857496928777	2
0	1300	127.930357890836	3
0	1301	128.10986378432	2
0	1305	128.256335302083	3
0	1307	128.366083718446	4
0	1308	128.493644141648	3
0	1311	128.877424498976	2
0	1315	128.915852457877	3
0	1317	128.997318967625	4
0	1319	129.239391043242	5
0	1320	129.261204856304	4
0	1324	129.47456251923	5
0	1325	129.644985213632	4
0	1329	129.852331745286	5
0	1330	130.02876557096	4
0	1333	130.412545928288	3
0	1337	130.786449642049	4
0	1338	130.796326285616	3
0	1341	131.180106642944	2
0	1344	131.563887000272	1
0	1348	131.71313761324	2
0	1349	131.9476673576	1
0	1353	132.173499490571	2
0	1354	132.331447714928	1
0	1358	132.36889546047	2
0	1360	132.414763426433	3
0	1361	132.715228072256	2
0	1364	133.099008429584	1
0	1367	133.482788786912	0
0	1381	134.54090116886	1
0	1382	134.83085090582	0
0	1391	137.218406573902	1
0	1392	137.486198423951	0
0	1401	138.100670027201	1
0	1402	138.261775050177	0
0	1406	138.461556808321	1
0	1407	138.645555407505	0
0	1416	139.775758724591	1
0	1418	139.936898400093	2
0	1419	140.022251525652	1
0	1422	140.40603188298	0
0	1426	140.482610386199	1
0	1428	140.525051188327	2
0	1430	140.565268430189	3
0	1431	140.789812240308	2
0	1435	140.988826281799	3
0	1436	141.173592597636	2
0	1439	141.557372954964	1
0	1443	141.717738734564	2
0	1444	141.941153312292	1
0	1448	142.027650691113	2
0	1449	142.32493366962	1
0	1453	142.660485954802	2
0	1454	142.708714026948	1
0	1458	142.889343485065	2
0	1459	143.092494384276	1
0	1463	143.417441657772	2
0	1464	143.476274741604	1
0	1468	143.852830221429	2
0	1469	143.860055098932	1
0	1473	144.112911815533	2
0	1474	144.24383545626	1
0	1477	144.627615813588	0
0	1491	146.151993859101	1
0	1493	146.400166210376	2
0	1494	146.462540207459	1
0	1497	146.846320564787	0
0	1506	148.092476454956	1
0	1507	148.39199177428	0
0	1521	149.928534680872	1
0	1522	150.168005560957	0
0	1526	150.540685508484	1
0	1530	150.812493334095	2
0	1531	150.818668041664	1
0	1533	151.202448398992	0
0	1542	152.012463117795	1
0	1544	152.020195797373	2
0	1545	152.338080134585	1
0	1549	152.455653223116	2
0	1551	152.526263674758	3
0	1552	152.721860491913	2
0	1555	153.105640849241	1
0	1558	153.489421206569	0
0	1562	153.7586202097	1
0	1564	153.864770172838	2
0	1565	153.873201563897	1
0	1569	154.108835397487	2
0	1570	154.256981921225	1
0	1573	154.640762278553	0
0	1582	155.361197253441	1
0	1583	155.556281114042	0
0	1592	156.494771753878	1
0	1593	156.534703391084	0
0	1597	156.679361858572	1
0	1599	156.799075343501	2
0	1600	156.918483748412	1
0	1604	156.946107524825	2
0	1606	157.14379755328	3
0	1607	157.30226410574	2
0	1610	157.686044463068	1
0	1614	157.82334045646	2
0	1615	158.069824820396	1
0	1618	158.453605177724	0
0	1627	159.568751863751	1
0	1629	159.617814379106	2
0	1630	159.773457233063	1
0	1633	160.157237590391	0
0	1637	160.239128413871	1
0	1638	160.541017947719	0
0	1642	160.556946144415	1
0	1643	160.924798305047	0
0	1662	163.762001342852	1
0	1663	163.865641703894	0
0	1667	164.113312002419	1
0	1668	164.249422061222	0
0	1677	164.883474730751	1
0	1679	164.9510321253	2
0	1681	164.961645170678	3
0	1682	165.088330612256	2
0	1685	165.472110969584	1
0	1689	165.621644452298	2
0	1690	165.855891326912	1
0	1694	166.226376748299	2
0	1695	166.23967168424	1
0	1699	166.346893383941	2
0	1701	166.352247510769	3
0	1702	166.623452041568	2
0	1706	166.682856479312	3
0	1707	167.007232398896	2
0	1711	167.302108773979	3
0	1712	167.391012756224	2
0	1716	167.616211425255	3
0	1717	167.774793113552	2
0	1720	168.15857347088	1
0	1724	168.17430702663	2
0	1725	168.542353828208	1
0	1729	168.687187920637	2
0	1730	168.926134185536	1
0	1734	169.173050256257	2
0	1735	169.309914542864	1
0	1739	169.682276138484	2
0	1740	169.693694900192	1
0	1743	170.07747525752	0
0	1767	174.543083352861	1
0	1768	174.576434867451	0
0	1777	175.34738690399	1
0	1780	175.852210769543	0
0	1783	175.879739705523	1
0	1785	176.122360414296	2
0	1786	176.235991126871	1
0	1790	176.297927445916	2
0	1792	176.380440353539	3
0	1793	176.619771484199	2
0	1797	176.755465206977	3
0	1799	176.86988247935	4
0	1800	177.003551841527	3
0	1804	177.03456843418	4
0	1805	177.387332198855	3
0	1808	177.771112556183	2
0	1811	178.154892913511	1
0	1815	178.503722385676	2
0	1816	178.538673270839	1
0	1819	178.922453628167	0
0	1828	179.383379587434	1
0	1829	179.739395751389	0
0	1838	181.248438001073	1
0	1839	181.410600272079	0
0	1843	181.75559068347	1
0	1844	181.794380629407	0
0	1853	182.315770325462	1
0	1855	182.507286502575	2
0	1856	182.649106326603	1
0	1860	182.996349198816	2
0	1861	183.032886683931	1
0	1864	183.416667041259	0
0	1868	183.604803005186	1
0	1869	183.800447398587	0
0	1888	185.998584356894	1
0	1889	186.026002038571	0
0	1893	186.238921609834	1
0	1894	186.409782395899	0
0	1898	186.512216072369	1
0	1899	186.793562753227	0
0	1903	187.160687486743	1
0	1904	187.177343110555	0
0	1908	187.459848238095	1
0	1909	187.561123467883	0
0	1913	187.561598077477	1
0	1914	187.944903825211	0
0	1918	188.02746590728	1
0	1919	188.328684182539	0
0	1928	189.298680272074	1
0	1929	189.500922054056	0
0	1953	192.738907133772	1
0	1955	192.873908087449	2
0	1956	193.061483049218	1
0	1959	193.445263406546	0
0	1963	193.654950854452	1
0	1964	193.829043763874	0
0	1978	194.916894406081	1
0	1979	195.291590478274	0
0	1983	195.61601374695	1
0	1984	195.675370835602	0
0	1988	195.977320319786	1
0	1989	196.05915119293	0
0	1993	196.168823868781	1
0	1994	196.442931550258	0
0	2003	197.598135634717	1
0	2004	197.791914432278	0
0	2008	198.090804121738	1
0	2009	198.175694789606	0
0	2023	199.348251267336	1
0	2024	199.604454990496	0
0	2039	202.192288667003	1
0	2041	202.268687368499	2
0	2042	202.504408077338	1
0	2045	202.888188434666	0
0	2049	203.177669566064	1
0	2051	203.235202600878	2
0	2052	203.271968791994	1
0	2056	203.319046348335	2
0	2057	203.655749149322	1
0	2060	204.03952950665	0
0	2064	204.194389159392	1
0	2066	204.293704468526	2
0	2068	204.402675656837	3
0	2070	204.40549118766	4
0	2071	204.423309863978	3
0	2075	204.765445434523	4
0	2076	204.807090221306	3
0	2079	205.190870578634	2
0	2083	205.424696883549	3
0	2085	205.543545301991	4
0	2086	205.574650935962	3
0	2090	205.898198300202	4
0	2091	205.95843129329	3
0	2094	206.342211650618	2
0	2098	206.684252601671	3
0	2099	206.725992007946	2
0	2102	207.109772365274	1
0	2105	207.493552722602	0
0	2114	208.781442517364	1
0	2115	208.905865077456	0
0	2119	209.039239602955	1
0	2121	209.277566542882	2
0	2122	209.289645434784	1
0	2125	209.673425792112	0
0	2129	209.685984581421	1
0	2131	210.013454605444	2
0	2133	210.038805760023	3
0	2134	210.05720614944	2
0	2138	210.399489678975	3
0	2139	210.440986506768	2
0	2142	210.824766864096	1
0	2146	210.975681281271	2
0	2148	211.177425941276	3
0	2149	211.208547221424	2
0	2152	211.592327578752	1
0	2155	211.97610793608	0
0	2159	211.984391165303	1
0	2160	212.359888293408	0
0	2174	214.583730143469	1
0	2175	214.631487131966	0
0	2179	214.678526115346	1
0	2180	215.015267489294	0
0	2184	215.361974923693	1
0	2185	215.399047846622	0
0	2189	215.476455404675	1
0	2190	215.78282820395	0
0	2204	217.908845163543	1
0	2205	218.130189653233	0
0	2209	218.410197711916	1
0	2210	218.513970010561	0
0	2214	218.777294009059	1
0	2215	218.897750367889	0
0	2219	218.94157673107	1
0	2221	219.146506166327	2
0	2222	219.281530725217	1
0	2225	219.665311082545	0
0	2229	219.747474969393	1
0	2230	220.049091439873	0
0	2244	221.818046630123	1
0	2246	222.130487746051	2
0	2247	222.176008462317	1
0	2250	222.559788819645	0
0	2254	222.803806971764	1
0	2256	222.821372785185	2
0	2257	222.943569176973	1
0	2261	223.12661929185	2
0	2262	223.327349534301	1
0	2265	223.711129891629	0
0	2269	223.736646980517	1
0	2270	224.094910248957	0
0	2279	224.80624307976	1
0	2283	224.886725703036	2
0	2285	224.953112598363	3
0	2286	225.141730862216	2
0	2288	225.525511219544	1
0	2292	225.763523014629	2
0	2293	225.909291576872	1
0	2296	226.2930719342	0
0	2305	227.122953586276	1
0	2306	227.481231722308	0
0	2310	227.623091142665	1
0	2311	227.865012079636	0
0	2320	228.843765571843	1
0	2322	228.87078772817	2
0	2323	228.994794804076	1
0	2327	229.292814815729	2
0	2329	229.332136931717	3
0	2330	229.378575161404	2
0	2333	229.762355518732	1
0	2337	230.138472414058	2
0	2338	230.14613587606	1
0	2342	230.282571098904	2
0	2344	230.513824285612	3
0	2345	230.529916233388	2
0	2349	230.702793451906	3
0	2350	230.913696590716	2
0	2354	231.104767467207	3
0	2356	231.234739679728	4
0	2357	231.297476948044	3
0	2360	231.681257305372	2
0	2364	231.949351300893	3
0	2365	232.0650376627	2
0	2369	232.092116113228	3
0	2371	232.298540985757	4
0	2372	232.448818020028	3
0	2375	232.832598377356	2
0	2378	233.216378734684	1
0	2382	233.320466482346	2
0	2383	233.600159092012	1
0	2387	233.627165148579	2
0	2388	233.98393944934	1
0	2392	233.998150456062	2
0	2393	234.367719806668	1
0	2397	234.458338223973	2
0	2399	234.708488334158	3
0	2400	234.751500163996	2
0	2404	235.076797813249	3
0	2405	235.135280521324	2
0	2408	235.519060878652	1
0	2412	235.721985519455	2
0	2413	235.90284123598	1
0	2416	236.286621593308	0
0	2425	237.162014008889	1
0	2426	237.215662153094	0
0	2430	237.317307280388	1
0	2431	237.599442510422	0
0	2445	239.598480952603	1
0	2447	239.703865290531	2
0	2448	239.839059223654	1
0	2452	240.005598377776	2
0	2453	240.222839580982	1
0	2456	240.60661993831	0
0	2470	242.68440253842	1
0	2471	243.022118962153	0
0	2475	243.245990596704	1
0	2476	243.405899319481	0
0	2480	243.739947646802	1
0	2481	243.789679676809	0
0	2485	244.09874253718	1
0	2486	244.173460034137	0
0	2490	244.195229963371	1
0	2491	244.557240391465	0
0	2495	244.924734251559	1
0	2496	244.941020748793	0
0	2500	245.147324834655	1
0	2501	245.324801106121	0
0	2505	245.624298437767	1
0	2506	245.708581463449	0
0	2515	246.552678673006	1
0	2516	246.608087299952	0
0	2520	246.676283164368	1
0	2522	246.871267571857	2
0	2523	246.99186765728	1
0	2527	247.078900810797	2
0	2528	247.375648014608	1
0	2532	247.603356377997	2
0	2536	247.792665675008	3
0	2538	247.959813495304	4
0	2539	248.026310495315	3
0	2541	248.410090852643	2
0	2545	248.413956943058	3
0	2546	248.793871209971	2
0	2549	249.177651567299	1
0	2553	249.554989833257	2
0	2554	249.561431924627	1
0	2558	249.617464046673	2
0	2559	249.945212281955	1
0	2563	250.116458730929	2
0	2564	250.328992639283	1
0	2568	250.508906726035	2
0	2569	250.712772996611	1
0	2573	250.806937595853	2
0	2575	250.825769091009	3
0	2577	251.04088716948	4
0	2578	251.096553353939	3
0	2582	251.11787765873	4
0	2583	251.480333711267	3
0	2586	251.864114068595	2
0	2590	252.002314082132	3
0	2591	252.247894425923	2
0	2595	252.526682540577	3
0	2597	252.572695954903	4
0	2598	252.631674783251	3
0	2602	252.736481689779	4
0	2604	252.876504398918	5
0	2605	253.015455140579	4
0	2609	253.329010374335	5
0	2610	253.399235497907	4
0	2614	253.535498787299	5
0	2615	253.783015855235	4
0	2618	254.166796212563	3
0	2622	254.254752782355	4
0	2624	254.524881045574	5
0	2625	254.550576569891	4
0	2629	254.682242021602	5
0	2630	254.934356927219	4
0	2634	254.946909585667	5
0	2635	255.318137284547	4
0	2637	255.318137284547	3
0	2639	255.701917641875	2
0	2642	256.085697999203	1
0	2646	256.216672298364	2
0	2647	256.469478356531	1
0	2650	256.853258713859	0
0	2654	256.901490523222	1
0	2655	257.237039071187	0
0	2669	258.730087728096	1
0	2670	258.955901131243	0
0	2674	259.036254379932	1
0	2675	259.339681488571	0
0	2679	259.625445848745	1
0	2680	259.723461845899	0
0	2684	259.801856144073	1
0	2686	259.948920647328	2
0	2687	260.107242203227	1
0	2691	260.145213167048	2
0	2692	260.491022560555	1
0	2695	260.874802917883	0
0	2699	260.973668441534	1
0	2700	261.258583275211	0
0	2704	261.554743542233	1
0	2705	261.642363632539	0
0	2709	261.826577736589	1
0	2710	262.026143989867	0
0	2714	262.054781168267	1
0	2716	262.201190653654	2
0	2718	262.344776665055	3
0	2719	262.409924347195	2
0	2722	262.793704704523	1
0	2726	263.097635555885	2
0	2727	263.177485061851	1
0	2730	263.561265419179	0
0	2739	264.801505560422	1
0	2740	264.962069293849	0
0	2759	267.001989796549	1
0	2760	267.126139765492	0
0	2764	267.158816007996	1
0	2765	267.50992012282	0
0	2769	267.572076098794	1
0	2771	267.798596134146	2
0	2773	267.861948711447	3
0	2774	267.893700480148	2
0	2778	267.937957236033	3
0	2779	268.277480837476	2
0	2783	268.373105860882	3
0	2784	268.661261194804	2
0	2790	269.154563542827	3
0	2792	269.207778807117	4
0	2794	269.280886364894	5
0	2795	269.311923675511	4
0	2797	269.695704032839	3
0	2800	270.079484390167	2
0	2804	270.224986679752	3
0	2805	270.463264747495	2
0	2808	270.847045104823	1
0	2812	270.866247813118	2
0	2814	271.088675081579	3
0	2816	271.153667478285	4
0	2817	271.230825462151	3
0	2821	271.554996753997	4
0	2822	271.614605819479	3
0	2826	271.67667133421	4
0	2828	271.823464624782	5
0	2829	271.998386176807	4
0	2832	272.382166534135	3
0	2836	272.406182580148	4
0	2837	272.765946891463	3
0	2841	273.055476131399	4
0	2842	273.149727248791	3
0	2846	273.414076891115	4
0	2847	273.533507606119	3
0	2850	273.917287963447	2
0	2854	274.195500938239	3
0	2855	274.301068320775	2
0	2859	274.322214426799	3
0	2860	274.684848678103	2
0	2864	275.015135053475	3
0	2865	275.068629035431	2
0	2868	275.452409392759	1
0	2871	275.836189750087	0
0	2885	277.241877142243	1
0	2886	277.481521477709	0
0	2890	277.756547419901	1
0	2891	277.865301835037	0
0	2895	277.893060262749	1
0	2897	278.210569174806	2
0	2898	278.249082192365	1
0	2902	278.468242652102	2
0	2903	278.632862549693	1
0	2907	278.93139579547	2
0	2908	279.016642907021	1
0	2912	279.095014190922	2
0	2914	279.103930627232	3
0	2916	279.273566343314	4
0	2917	279.400423264349	3
0	2920	279.784203621677	2
0	2923	280.167983979005	1
0	2927	280.372205424871	2
0	2928	280.551764336333	1
0	2932	280.901478877624	2
0	2933	280.935544693661	1
0	2937	281.003235668267	2
0	2939	281.026628832795	3
0	2940	281.319325050989	2
0	2944	281.514147610238	3
0	2945	281.703105408317	2
0	2949	281.86675253767	3
0	2950	282.086885765645	2
0	2954	282.408641464838	3
0	2955	282.470666122973	2
0	2958	282.854446480301	1
0	2962	283.101741276385	2
0	2963	283.238226837629	1
0	2967	283.283248478967	2
0	2968	283.622007194957	1
0	2971	284.005787552285	0
0	2975	284.091396188513	1
0	2976	284.389567909613	0
0	2980	284.580085730291	1
0	2982	284.678868533568	2
0	2983	284.773348266941	1
0	2987	285.112362073178	2
0	2988	285.157128624269	1
0	2992	285.371862232566	2
0	2994	285.436986567212	3
0	2995	285.540908981597	2
0	2999	285.796388027122	3
0	3000	285.924689338925	2
0	3003	286.308469696253	1
0	3006	286.692250053581	0
0	3015	287.965275073604	1
0	3016	288.095058505909	0
0	3020	288.118174257759	1
0	3022	288.220955463888	2
0	3024	288.373333136267	3
0	3026	288.444723299871	4
0	3027	288.478838863237	3
0	3031	288.489204294659	4
0	3033	288.741092903049	5
0	3034	288.862619220565	4
0	3037	289.246399577893	3
0	3043	289.822028625966	4
0	3044	289.8970620586	3
0	3047	289.902693811624	4
0	3049	290.195493344649	5
0	3050	290.280842415928	4
0	3052	290.280842415928	3
0	3055	290.294345616586	4
0	3056	290.664622773256	3
0	3060	290.78817911467	4
0	3062	290.954833296511	5
0	3063	291.048403130584	4
0	3066	291.432183487912	3
0	3070	291.790433402013	4
0	3071	291.81596384524	3
0	3074	292.199744202568	2
0	3078	292.41265194239	3
0	3079	292.583524559896	2
0	3082	292.967304917224	1
0	3086	293.040890654116	2
0	3087	293.351085274552	1
0	3091	293.653495280296	2
0	3092	293.73486563188	1
0	3095	294.118645989208	0
0	3099	294.400373277047	1
0	3100	294.502426346536	0
0	3104	294.603497778354	1
0	3106	294.802123346977	2
0	3107	294.886206703864	1
0	3110	295.269987061192	0
0	3119	297.016118584777	1
0	3120	297.321927472102	0
0	3124	297.576172986727	1
0	3125	297.70570782943	0
0	3129	297.959466948789	1
0	3130	298.089488186758	0
0	3139	298.746088877482	1
0	3140	299.00757698544	0
0	3149	299.977613424567	1
0	3150	300.051488684648	0
0	3159	300.685207445233	1
0	3160	301.029297945468	0
0	3179	305.146022071581	1
0	3180	305.360712010192	0
0	3184	305.708452397337	1
0	3185	305.74449236752	0
0	3189	305.839647662858	1
0	3191	306.11749238734	2
0	3192	306.128272724848	1
0	3196	306.214600351058	2
0	3197	306.512053082176	1
0	3201	306.535713975918	2
0	3203	306.631237215803	3
0	3204	306.895833439504	2
0	3208	306.952837592935	3
0	3209	307.279613796832	2
0	3213	307.479779472644	3
0	3215	307.651267318355	4
0	3216	307.66339415416	3
0	3219	308.047174511488	2
0	3222	308.430954868816	1
0	3225	308.814735226144	0
0	3234	311.345123830452	1
0	3235	311.482304830207	0
0	3249	314.292374248568	1
0	3250	314.317541580019	0
0	3254	314.426725709945	1
0	3255	314.701321937347	0
0	3259	314.922302444681	1
0	3260	315.085102294675	0
0	3284	317.915529088072	1
0	3285	318.030646814477	0
0	3300	319.626418600001	1
0	3301	319.883187071869	0
0	3315	322.026053290729	1
0	3316	322.094304576955	0
0	3325	323.259678430977	1
0	3327	323.356458639399	2
0	3328	323.450196075839	1
0	3331	323.833976433167	0
0	3335	323.87191550878	1
0	3336	324.217756790495	0
0	3340	324.530564769629	1
0	3341	324.601537147823	0
0	3345	324.869663998703	1
0	3346	324.985317505151	0
0	3355	326.070814848515	1
0	3356	326.100991466862	0
0	3360	326.238044647392	1
0	3362	326.45012644167	2
0	3363	326.48477182419	1
0	3367	326.518841167267	2
0	3368	326.868552181518	1
0	3371	327.252332538846	0
0	3380	328.422806596556	1
0	3381	328.541286630607	0
0	3400	330.782114975269	1
0	3401	330.874794072246	0
0	3405	330.952844432767	1
0	3406	331.258574429574	0
0	3415	332.044604059514	1
0	3416	332.069399193517	0
0	3425	333.147980471555	1
0	3427	333.270398529495	2
0	3428	333.318827326963	1
0	3431	333.702607684291	0
0	3435	333.85696522937	1
0	3436	334.086388041619	0
0	3440	334.181788606712	1
0	3441	334.470168398947	0
0	3445	334.810465724702	1
0	3446	334.853948756275	0
0	3460	335.964223388748	1
0	3462	336.169252938616	2
0	3464	336.19328061635	3
0	3465	336.300156541207	2
0	3469	336.390280508192	3
0	3471	336.495664677669	4
0	3472	336.683936898535	3
0	3476	336.857586332327	4
0	3477	337.067717255863	3
0	3480	337.451497613191	2
0	3483	337.835277970519	1
0	3487	338.019889120149	2
0	3488	338.219058327847	1
0	3491	338.602838685175	0
0	3510	340.48595965601	1
0	3511	340.704199673355	0
0	3525	342.74158980002	1
0	3527	342.9233499898	2
0	3528	342.977822721111	1
0	3531	343.361603078439	0
0	3566	348.122695567522	1
0	3567	348.358881959003	0
0	3576	349.895537455472	1
0	3577	349.950520725159	0
0	3581	349.97113506706	1
0	3583	350.179993398517	2
0	3584	350.334301082487	1
0	3588	350.337945261405	2
0	3589	350.718081439815	1
0	3592	351.101861797143	0
0	3596	351.391366211726	1
0	3597	351.485642154471	0
0	3606	352.845585048517	1
0	3608	352.945403641265	2
0	3609	353.214926729811	1
0	3613	353.428501188739	2
0	3614	353.598707087139	1
0	3618	353.891705292563	2
0	3619	353.982487444467	1
0	3622	354.366267801795	0
0	3631	355.084327321663	1
0	3633	355.103428212102	2
0	3634	355.243810332074	1
0	3637	355.627590689402	0
0	3641	355.872000464069	1
0	3642	356.01137104673	0
0	3651	356.506184449814	1
0	3652	356.836144094774	0
0	3656	357.147607319892	1
0	3658	357.193346777689	2
0	3659	357.219924452102	1
0	3663	357.364247366981	2
0	3664	357.60370480943	1
0	3667	357.987485166758	0
0	3681	360.519171635868	1
0	3683	360.658909825067	2
0	3684	360.882542425519	1
0	3688	361.017243766395	2
0	3690	361.021495460376	3
0	3691	361.266322782847	2
0	3695	361.435950561487	3
0	3696	361.650103140175	2
0	3700	361.945542356515	3
0	3702	361.958557601218	4
0	3703	362.033883497503	3
0	3707	362.098049808931	4
0	3709	362.257595471018	5
0	3710	362.417663854831	4
0	3713	362.801444212159	3
0	3717	362.977458862435	4
0	3718	363.185224569487	3
0	3721	363.569004926815	2
0	3725	363.593659655997	3
0	3727	363.895599442749	4
0	3728	363.952785284143	3
0	3732	363.970980028432	4
0	3733	364.336565641471	3
0	3736	364.720345998799	2
0	3740	364.750229959119	3
0	3742	364.917824202344	4
0	3744	365.032827297497	5
0	3745	365.104126356127	4
0	3749	365.228678640587	5
0	3751	365.253347345979	6
0	3753	365.335248561608	7
0	3754	365.487906713455	6
0	3757	365.871687070783	5
0	3761	365.919346067574	6
0	3763	365.962794475476	7
0	3764	366.255467428111	6
0	3767	366.639247785439	5
0	3770	367.023028142767	4
0	3772	367.023028142767	3
0	3773	367.023028142767	2
0	3775	367.406808500095	1
0	3779	367.672484463116	2
0	3780	367.790588857423	1
0	3782	367.790588857423	0
0	3785	367.886415578045	1
0	3787	368.15004338761	2
0	3788	368.174369214751	1
0	3792	368.287269464055	2
0	3794	368.332138062544	3
0	3795	368.558149572079	2
0	3799	368.803417653272	3
0	3801	368.868289722367	4
0	3802	368.941929929407	3
0	3806	369.209967354982	4
0	3810	369.368338208049	5
0	3811	369.592592410114	4
0	3814	369.631858367882	5
0	3815	369.976372767442	4
0	3818	370.36015312477	3
0	3822	370.615309314762	4
0	3823	370.743933482098	3
0	3827	370.773514069394	4
0	3828	371.127713839426	3
0	3830	371.127713839426	2
0	3832	371.511494196754	1
0	3836	371.53868840505	2
0	3838	371.585674318374	3
0	3839	371.895274554082	2
0	3843	371.964010557255	3
0	3845	372.034837255876	4
0	3847	372.113095367591	5
0	3848	372.27905491141	4
0	3852	372.419060265034	5
0	3853	372.662835268738	4
0	3856	373.046615626066	3
0	3860	373.289878670257	4
0	3861	373.430395983394	3
0	3864	373.814176340722	2
0	3868	373.905027823799	3
0	3869	374.19795669805	2
0	3871	374.19795669805	1
0	3874	374.402231284321	2
0	3876	374.485684891821	3
0	3877	374.581737055378	2
0	3881	374.883157549938	3
0	3882	374.965517412706	2
0	3886	375.223918996123	3
0	3888	375.289362751266	4
0	3889	375.349297770034	3
0	3892	375.733078127362	2
0	3896	375.840014396187	3
0	3897	376.11685848469	2
0	3900	376.500638842018	1
0	3903	376.884419199346	0
0	3907	376.969979005944	1
0	3908	377.268199556674	0
0	3917	378.036239266209	1
0	3918	378.371876428864	0
0	3927	379.747046206164	1
0	3928	379.77812431872	0
0	3942	381.93238947969	1
0	3944	382.029618091894	2
0	3945	382.174942234285	1
0	3949	382.271344795034	2
0	3951	382.302994942905	3
0	3952	382.558722591613	2
0	3956	382.902190091264	3
0	3957	382.942502948941	2
0	3961	382.99772518922	3
0	3963	383.090227413405	4
0	3965	383.163822718909	5
0	3967	383.234184745109	6
0	3969	383.275004742155	7
0	3970	383.326283306269	6
0	3973	383.710063663597	5
0	3977	383.715879167636	6
0	3978	384.093844020925	5
0	3982	384.094776511772	6
0	3984	384.234984864129	7
0	3986	384.306398886109	8
0	3988	384.454418327223	9
0	3989	384.477624378253	8
0	3992	384.861404735581	7
0	3995	385.245185092909	6
0	3997	385.245185092909	5
0	3998	385.245185092909	4
0	4000	385.628965450237	3
0	4004	385.933618891307	4
0	4005	386.012745807565	3
0	4007	386.012745807565	2
0	4009	386.396526164893	1
0	4011	386.396526164893	0
0	4014	386.481566834879	1
0	4015	386.780306522221	0
0	4039	389.588174184658	1
0	4040	389.694006437078	0
0	4059	391.791784487323	1
0	4060	391.888039121158	0
0	4064	391.9096321035	1
0	4065	392.271819478486	0
0	4085	394.70604366057	1
0	4086	394.90538752986	0
0	4095	396.47534224451	1
0	4096	396.56753811202	0
0	4100	396.608834832063	1
0	4101	396.951318469348	0
0	4110	397.821464236867	1
0	4112	397.825783562336	2
0	4113	398.197776739344	1
0	4116	398.581557096672	0
0	4120	398.910435094876	1
0	4121	398.965337454	0
0	4125	399.117043237487	1
0	4127	399.165096492941	2
0	4128	399.349117811328	1
0	4132	399.429678953265	2
0	4134	399.704789350703	3
0	4135	399.732898168656	2
0	4138	400.116678525984	1
0	4141	400.500458883312	0
0	4145	400.622295359985	1
0	4146	400.88423924064	0
0	4155	401.500566813676	1
0	4157	401.511798852351	2
0	4158	401.726412197984	1
0	4161	402.110192555312	0
0	4170	403.526599809999	1
0	4171	403.623816232393	0
0	4180	405.109591204815	1
0	4181	405.124395510665	0
0	4185	405.443278009297	1
0	4186	405.508175867993	0
0	4195	406.371916521951	1
0	4197	406.646053914868	2
0	4198	406.746878917657	1
0	4201	407.130659274985	0
0	4205	407.209573109991	1
0	4207	407.461500675348	2
0	4208	407.514439632313	1
0	4212	407.705491150283	2
0	4213	407.898219989641	1
0	4217	408.277859566609	2
0	4218	408.282000346969	1
0	4221	408.665780704297	0
0	4240	411.406991251215	1
0	4241	411.416110006918	0
0	4250	413.23683290628	1
0	4251	413.290529141181	0
0	4255	413.404097143721	1
0	4257	413.652590082512	2
0	4258	413.674309498509	1
0	4262	413.70766937617	2
0	4264	413.717230105553	3
0	4266	413.970499555707	4
0	4267	414.058089855837	3
0	4270	414.441870213165	2
0	4273	414.825650570493	1
0	4276	415.209430927821	0
0	4290	416.824134627734	1
0	4291	417.020538273395	0
0	4295	417.158941874086	1
0	4296	417.404318630723	0
0	4300	417.570291836255	1
0	4301	417.788098988051	0
0	4320	421.976350810634	1
0	4323	422.328178300595	0
0	4336	423.376327073902	1
0	4337	423.707480114683	0
0	4341	423.874528500757	1
0	4342	424.091260472011	0
0	4356	425.479359055786	1
0	4357	425.548260505813	0
0	4361	425.87287834112	1
0	4363	425.880340102367	2
0	4364	425.932040863141	1
0	4367	426.315821220469	0
0	4376	427.034564189847	1
0	4378	427.084693098892	2
0	4379	427.231648652079	1
0	4383	427.49048647719	2
0	4385	427.516889743278	3
0	4386	427.615429009407	2
0	4390	427.644017633327	3
0	4391	427.999209366735	2
0	4395	428.103080477414	3
0	4397	428.161695920579	4
0	4398	428.382989724063	3
0	4402	428.700136104501	4
0	4404	428.741013656443	5
0	4405	428.766770081391	4
0	4408	429.150550438719	3
0	4411	429.534330796047	2
0	4415	429.695547556147	3
0	4416	429.918111153375	2
0	4420	430.15563703529	3
0	4422	430.270261617319	4
0	4423	430.301891510703	3
0	4427	430.633202593179	4
0	4428	430.685671868031	3
0	4431	431.069452225359	2
0	4434	431.453232582687	1
0	4438	431.679497867882	2
0	4439	431.837012940015	1
0	4443	431.918691349826	2
0	4445	431.978925433245	3
0	4446	432.220793297343	2
0	4450	432.379254522768	3
0	4451	432.604573654671	2
0	4455	432.72668352724	3
0	4457	432.756432876849	4
0	4459	432.774951047728	5
0	4460	432.988354011999	4
0	4464	433.139507247089	5
0	4465	433.372134369327	4
0	4469	433.71233560119	5
0	4470	433.755914726655	4
0	4473	434.139695083983	3
0	4477	434.431312071028	4
0	4478	434.523475441311	3
0	4480	434.523475441311	2
0	4483	434.67856909699	3
0	4484	434.907255798639	2
0	4488	434.948076987503	3
0	4489	435.291036155967	2
0	4493	435.400207638795	3
0	4495	435.410501169672	4
0	4496	435.674816513295	3
0	4500	435.702353554107	4
0	4501	436.058596870623	3
0	4504	436.442377227951	2
0	4507	436.826157585279	1
0	4510	437.209937942607	0
0	4514	437.546845020673	1
0	4515	437.593718299935	0
0	4519	437.688141784038	1
0	4520	437.977498657263	0
0	4524	438.025504427256	1
0	4525	438.361279014591	0
0	4534	439.005485210131	1
0	4535	439.1733827429	0
0	4539	439.274162937782	1
0	4540	439.557163100228	0
0	4544	439.576634336013	1
0	4545	439.940943457556	0
0	4554	440.476216837967	1
0	4556	440.582251721941	2
0	4557	440.856272012222	1
0	4561	440.867898833897	2
0	4562	441.24005236955	1
0	4565	441.623832726878	0
0	4569	441.71521429769	1
0	4571	441.758480653229	2
0	4572	442.007613084206	1
0	4576	442.216569831383	2
0	4578	442.300763336	3
0	4582	442.587387909937	4
0	4583	442.658275564913	3
0	4585	443.042055922241	2
0	4589	443.123181741347	3
0	4591	443.147190548688	4
0	4592	443.425836279569	3
0	4595	443.809616636897	2
0	4599	443.89828587998	3
0	4601	443.952491423921	4
0	4602	444.193396994225	3
0	4605	444.577177351553	2
0	4609	444.688904616654	3
0	4610	444.960957708881	2
0	4614	445.025899567795	3
0	4616	445.056890237498	4
0	4618	445.214324868574	5
0	4619	445.344738066209	4
0	4623	445.488805934336	5
0	4624	445.728518423537	4
0	4627	446.112298780865	3
0	4630	446.496079138193	2
0	4634	446.591821504665	3
0	4635	446.879859495521	2
0	4639	447.111671509881	3
0	4641	447.125782002487	4
0	4642	447.263639852849	3
0	4644	447.263639852849	2
0	4646	447.647420210177	1
0	4649	448.031200567505	0
0	4658	448.963603693433	1
0	4660	449.039888900974	2
0	4662	449.172664622783	3
0	4663	449.226656367897	2
0	4666	449.610436725225	1
0	4669	449.994217082553	0
0	4673	450.172697778112	1
0	4675	450.233285378598	2
0	4676	450.377997439881	1
0	4680	450.398610896221	2
0	4682	450.475056050249	3
0	4684	450.542377696811	4
0	4685	450.761777797209	3
0	4689	450.897923471462	4
0	4690	451.145558154537	3
0	4693	451.529338511865	2
0	4696	451.913118869193	1
0	4699	452.296899226521	0
0	4713	453.472627051072	1
0	4714	453.575755194224	0
0	4718	453.727172033382	1
0	4719	453.959535551552	0
0	4733	455.50178347341	1
0	4734	455.711962297332	0
0	4738	456.061665704733	1
0	4739	456.09574265466	0
0	4743	456.216158104396	1
0	4744	456.479523011988	0
0	4753	457.2840523693	1
0	4754	457.382020534796	0
0	4763	458.793905731735	1
0	4764	458.990809410938	0
0	4778	460.22569711629	1
0	4780	460.353850342118	2
0	4781	460.52730543965	1
0	4784	460.911085796978	0
0	4803	463.559194346567	1
0	4804	463.748027111239	0
0	4808	463.825182291077	1
0	4809	464.131807468567	0
0	4813	464.285292512241	1
0	4815	464.331885467795	2
0	4816	464.515587825895	1
0	4819	464.899368183223	0
0	4830	465.992068165704	1
0	4831	466.207470249792	0
0	4844	467.71743476312	1
0	4845	467.743244967927	0
0	4849	467.898203551796	1
0	4850	468.127025325255	0
0	4854	468.278367662292	1
0	4856	468.423711008855	2
0	4857	468.510805682583	1
0	4861	468.585858597544	2
0	4863	468.86360291437	3
0	4864	468.894586039911	2
0	4867	469.278366397239	1
0	4870	469.662146754567	0
0	4884	470.950676759997	1
0	4886	471.182761802989	2
0	4887	471.242188809234	1
0	4891	471.542749118806	2
0	4892	471.625969166562	1
0	4895	472.00974952389	0
0	4899	472.023882779427	1
0	4900	472.393529881218	0
0	4914	474.886940926608	1
0	4916	475.052770078932	2
0	4917	475.254874288597	1
0	4921	475.623662104339	2
0	4922	475.638654645925	1
0	4926	475.790444739035	2
0	4928	475.93374775495	3
0	4929	476.022435003253	2
0	4933	476.226722279187	3
0	4934	476.406215360581	2
0	4938	476.747242348416	3
0	4939	476.789995717909	2
0	4942	477.173776075237	1
0	4945	477.557556432565	0
0	4949	477.571632988045	1
0	4950	477.941336789893	0
0	4954	478.176584147046	1
0	4955	478.325117147221	0
0	4969	479.80980810136	1
0	4971	479.845608119881	2
0	4973	479.947162256076	3
0	4974	480.105767249885	2
0	4978	480.264300489257	3
0	4979	480.489547607213	2
0	4983	480.741285251175	3
0	4985	480.835195724324	4
0	4986	480.873327964541	3
0	4990	480.895936780836	4
0	4992	481.222451403202	5
0	4993	481.257108321869	4
0	4997	481.378819918315	5
0	4999	481.530375545141	6
0	5001	481.534740436657	7
0	5002	481.640888679197	6
0	5005	482.024669036525	5
0	5009	482.108804178233	6
0	5011	482.232594298233	7
0	5012	482.408449393853	6
0	5015	482.792229751181	5
0	5018	483.176010108509	4
0	5020	483.176010108509	3
0	5023	483.370884132485	4
0	5024	483.559790465837	3
0	5026	483.559790465837	2
0	5029	483.819364168877	3
0	5030	483.943570823165	2
0	5033	484.327351180493	1
0	5036	484.711131537821	0
0	5045	485.185098569829	1
0	5047	485.224791036065	2
0	5048	485.531267045368	1
0	5051	485.915047402696	0
0	5060	486.768880267047	1
0	5062	486.781759638689	2
0	5064	486.878029603181	3
0	5065	487.058715045165	2
0	5069	487.145193930499	3
0	5071	487.164539626224	4
0	5073	487.191372705579	5
0	5074	487.442495402493	4
0	5078	487.566097350897	5
0	5079	487.826275759821	4
0	5083	487.869921370898	5
0	5084	488.210056117149	4
0	5087	488.593836474477	3
0	5092	489.244498955184	2
0	5093	489.244498955184	1
0	5095	489.628279312512	0
0	5102	490.14242700885	1
0	5103	490.450213825116	0
0	5107	490.473628472505	1
0	5109	490.476277136414	2
0	5110	490.833994182444	1
0	5113	491.217774539772	0
0	5127	492.922817327233	1
0	5129	492.946581058715	2
0	5130	493.10683219454	1
0	5134	493.320523557301	2
0	5135	493.490612551868	1
0	5139	493.681916878093	2
0	5140	493.874392909196	1
0	5143	494.258173266524	0
0	5147	494.526975699469	1
0	5148	494.641953623852	0
0	5152	494.827002156239	1
0	5153	495.02573398118	0
0	5172	497.964248812397	1
0	5174	498.031141696716	2
0	5175	498.087777643903	1
0	5179	498.114741608834	2
0	5181	498.448022397759	3
0	5183	498.466640671268	4
0	5184	498.471558001231	3
0	5188	498.613548876488	4
0	5190	498.780348678211	5
0	5191	498.855338358559	4
0	5194	499.239118715887	3
0	5197	499.622899073215	2
0	5201	499.654440913079	3
0	5202	500.006679430543	2
0	5206	500.183663657757	3
0	5208	500.243917453521	4
0	5209	500.390459787871	3
0	5212	500.774240145199	2
0	5215	501.158020502527	1
0	5219	501.265142890875	2
0	5221	501.431106928196	3
0	5222	501.541800859855	2
0	5226	501.589767466851	3
0	5228	501.642597942462	4
0	5229	501.925581217183	3
0	5233	502.006935223336	4
0	5235	502.116506599634	5
0	5236	502.309361574511	4
0	5240	502.457667270602	5
0	5242	502.523185705314	6
0	5243	502.693141931839	5
0	5246	503.076922289167	4
0	5249	503.460702646495	3
0	5252	503.844483003823	2
0	5254	503.844483003823	1
0	5256	504.228263361151	0
0	5260	504.240814086057	1
0	5262	504.296860205529	2
0	5263	504.612043718479	1
0	5267	504.789545958994	2
0	5268	504.995824075807	1
0	5272	505.012417587584	2
0	5273	505.379604433135	1
0	5277	505.637985382853	2
0	5278	505.763384790463	1
0	5282	506.000343947105	2
0	5283	506.147165147791	1
0	5287	506.289712327998	2
0	5288	506.530945505119	1
0	5291	506.914725862447	0
0	5295	507.154917945705	1
0	5297	507.157343674292	2
0	5298	507.298506219775	1
0	5302	507.52891805875	2
0	5303	507.682286577103	1
0	5307	507.862387150344	2
0	5308	508.066066934431	1
0	5312	508.159406023396	2
0	5314	508.443821197737	3
0	5315	508.449847291759	2
0	5318	508.833627649087	1
0	5322	509.054654966738	2
0	5323	509.217408006415	1
0	5326	509.601188363743	0
0	5330	509.736571228362	1
0	5331	509.984968721071	0
0	5335	510.06155064698	1
0	5337	510.306134642542	2
0	5338	510.368749078399	1
0	5342	510.403831831882	2
0	5344	510.470576521191	3
0	5346	510.527164355719	4
0	5348	510.709349740516	5
0	5349	510.752529435727	4
0	5354	511.403191916434	3
0	5357	511.469699104274	4
0	5359	511.55327905366	5
0	5360	511.786972273762	4
0	5363	512.17075263109	3
0	5367	512.537801963299	4
0	5368	512.554532988418	3
0	5370	512.554532988418	2
0	5373	512.634808495049	3
0	5375	512.684073857062	4
0	5376	512.938313345746	3
0	5379	513.322093703074	2
0	5383	513.594047844034	3
0	5384	513.705874060402	2
0	5388	513.726236049477	3
0	5389	514.08965441773	2
0	5392	514.473434775058	1
0	5395	514.857215132386	0
0	5399	514.919394327639	1
0	5400	515.240995489714	0
0	5409	516.05312888339	1
0	5410	516.352693095522	0
0	5414	516.494519825252	1
0	5415	516.73647345285	0
0	5419	516.840159863947	1
0	5420	517.120253810178	0
0	5424	517.225090250629	1
0	5425	517.504034167506	0
0	5429	517.562470770551	1
0	5431	517.877364893652	2
0	5432	517.887814524834	1
0	5435	518.271594882162	0
0	5439	518.511121841456	1
0	5441	518.588561296918	2
0	5442	518.65537523949	1
0	5445	519.039155596818	0
0	5449	519.180416298444	1
0	5450	519.422935954146	0
0	5464	521.928027939648	1
0	5466	522.004263941842	2
0	5467	522.062072523885	1
0	5471	522.115217753704	2
0	5472	522.445852881213	1
0	5475	522.829633238541	0
0	5484	524.187803553763	1
0	5485	524.203639363232	0
0	5489	524.546061139676	1
0	5490	524.58741972056	0
0	5499	525.163322188823	1
0	5500	525.413044648903	0
0	5514	527.399810029033	1
0	5516	527.414190041891	2
0	5518	527.606317239916	3
0	5520	527.715295168785	4
0	5521	527.74262398378	3
0	5524	528.126404341108	2
0	5527	528.510184698436	1
0	5531	528.619673771717	2
0	5532	528.893965055764	1
0	5536	529.171520073572	2
0	5537	529.277745413092	1
0	5540	529.66152577042	0
0	5554	531.102353575847	1
0	5555	531.153640192519	0
0	5559	531.487939851133	1
0	5560	531.537420549847	0
0	5564	531.576662996963	1
0	5566	531.882761302778	2
0	5567	531.921200907175	1
0	5571	532.215134926062	2
0	5572	532.304981264503	1
0	5576	532.327586262988	2
0	5577	532.688761621831	1
0	5581	532.992918685616	2
0	5582	533.072541979159	1
0	5586	533.204132638995	2
0	5588	533.222943513787	3
0	5589	533.456322336487	2
0	5592	533.840102693815	1
0	5596	533.993093846218	2
0	5598	534.167689942322	3
0	5599	534.223883051143	2
0	5604	534.87454553185	1
0	5607	534.879115270971	2
0	5608	535.258325889178	1
0	5612	535.307880754342	2
0	5613	535.642106246506	1
0	5616	536.025886603834	0
0	5625	537.074382023474	1
0	5626	537.196823602037	0
0	5635	538.987396502904	1
0	5637	539.026647541069	2
0	5638	539.106263310078	1
0	5642	539.263578829441	2
0	5643	539.490043667406	1
0	5647	539.692178122756	2
0	5649	539.806168771085	3
0	5650	539.873824024734	2
0	5654	539.998786995311	3
0	5655	540.257604382062	2
0	5659	540.40437208846	3
0	5661	540.614682789936	4
0	5662	540.64138473939	3
0	5666	541.010923421015	4
0	5667	541.025165096718	3
0	5671	541.1910274459	4
0	5672	541.408945454046	3
0	5675	541.792725811374	2
0	5679	541.907229036493	3
0	5680	542.176506168702	2
0	5684	542.417749654476	3
0	5685	542.56028652603	2
0	5689	542.649380894974	3
0	5690	542.944066883358	2
0	5693	543.327847240686	1
0	5697	543.445201724173	2
0	5698	543.711627598014	1
0	5701	544.095407955342	0
0	5705	544.392544971238	1
0	5706	544.47918831267	0
0	5725	546.933621966383	1
0	5727	547.024277615452	2
0	5729	547.047042146231	3
0	5730	547.061246851569	2
0	5734	547.424813628445	3
0	5735	547.445027208897	2
0	5739	547.461202715842	3
0	5740	547.828807566225	2
0	5743	548.212587923553	1
0	5746	548.596368280881	0
0	5750	548.932974653368	1
0	5752	548.949909152136	2
0	5753	548.980148638209	1
0	5756	549.363928995537	0
0	5775	551.090125431619	1
0	5777	551.22117535276	2
0	5779	551.321393233833	3
0	5780	551.338782736004	2
0	5784	551.651239743076	3
0	5785	551.722563093332	2
0	5789	551.985939767477	3
0	5790	552.10634345066	2
0	5794	552.148982897711	3
0	5796	552.215081651945	4
0	5797	552.490123807988	3
0	5801	552.55408592424	4
0	5802	552.873904165316	3
0	5806	552.89180456464	4
0	5807	553.257684522644	3
0	5810	553.641464879972	2
0	5814	553.681281144131	3
0	5815	554.0252452373	2
0	5819	554.097089531958	3
0	5820	554.409025594628	2
0	5824	554.647215848794	3
0	5825	554.792805951956	2
0	5828	555.176586309284	1
0	5831	555.560366666612	0
0	5835	555.662130904794	1
0	5836	555.94414702394	0
0	5850	557.785253288649	1
0	5854	558.09107713587	2
0	5855	558.227716276368	1
0	5858	558.334925125334	2
0	5859	558.611496633696	1
0	5863	558.883009791299	2
0	5864	558.995276991024	1
0	5867	559.379057348352	0
0	5876	560.330301940383	1
0	5878	560.491978785685	2
0	5880	560.556156718574	3
0	5881	560.628270752292	2
0	5885	560.630757066511	3
0	5886	561.01205110962	2
0	5890	561.183371635406	3
0	5891	561.395831466948	2
0	5894	561.779611824276	1
0	5897	562.163392181604	0
0	5901	562.454979938171	1
0	5902	562.547172538932	0
0	5906	562.805215761813	1
0	5907	562.93095289626	0
0	5911	563.031531008774	1
0	5912	563.314733253588	0
0	5921	564.090258694711	1
0	5922	564.298573771062	0
0	5926	564.456046864468	1
0	5927	564.68235412839	0
0	5941	565.749211859311	1
0	5942	566.098657305766	0
0	5956	567.892133954123	1
0	5958	567.916270241851	2
0	5960	567.98154391585	3
0	5962	568.007151408002	4
0	5963	568.198732654982	3
0	5966	568.58251301231	2
0	5969	568.966293369638	1
0	5973	568.995604213806	2
0	5974	569.350073726966	1
0	5978	569.451919870677	2
0	5980	569.521428293034	3
0	5982	569.626445982342	4
0	5983	569.733854084294	3
0	5987	569.908575471168	4
0	5989	569.960924295845	5
0	5990	570.117634441622	4
0	5993	570.50141479895	3
0	5996	570.885195156278	2
0	6000	570.953866142518	3
0	6001	571.268975513606	2
0	6004	571.652755870934	1
0	6008	571.996717592354	2
0	6009	572.036536228262	1
0	6012	572.42031658559	0
0	6016	572.561416336098	1
0	6017	572.804096942918	0
0	6026	574.665667952945	1
0	6027	574.915072544824	0
0	6031	575.216192025941	1
0	6032	575.298852902152	0
0	6036	575.500737029918	1
0	6037	575.68263325948	0
0	6066	581.560052918824	1
0	6067	581.680526208787	0
0	6076	582.88610496002	1
0	6078	582.911603043045	2
0	6079	582.969430546467	1
0	6082	583.353210903795	0
0	6091	584.912699729938	1
0	6092	585.025650117534	0
0	6096	585.080615735848	1
0	6098	585.305722176541	2
0	6099	585.409430474862	1
0	6103	585.596929765279	2
0	6106	586.060092955569	1
0	6109	586.075615544996	2
0	6110	586.443873312897	1
0	6113	586.827653670225	0
0	6122	588.062420457267	1
0	6123	588.116955171938	0
0	6127	588.294235828025	1
0	6128	588.500735529266	0
0	6132	588.705553069972	1
0	6133	588.884515886594	0
0	6137	588.962842884899	1
0	6138	589.268296243922	0
0	6142	589.283115355176	1
0	6144	589.645343698765	2
0	6145	589.65207660125	1
0	6148	590.035856958578	0
0	6172	595.424344208083	1
0	6173	595.532277374331	0
0	6177	595.732735618493	1
0	6178	595.916057731659	0
0	6182	596.151267918811	1
0	6183	596.299838088987	0
0	6187	596.397275363772	1
0	6189	596.443946208887	2
0	6190	596.683618446315	1
0	6193	597.067398803643	0
0	6197	597.413543573439	1
0	6198	597.451179160971	0
0	6207	599.375937635943	1
0	6208	599.694269965338	0
0	6222	601.345982475756	1
0	6223	601.417780785228	0
0	6227	601.719162129139	1
0	6228	601.801561142556	0
0	6242	603.409534813869	1
0	6244	603.584278896674	2
0	6245	603.63283233483	1
0	6248	604.016612692158	0
0	6252	604.260735151529	1
0	6254	604.394329742147	2
0	6255	604.400393049486	1
0	6259	604.755019641801	2
0	6260	604.784173406814	1
0	6264	605.01067161079	2
0	6266	605.089737413244	3
0	6268	605.167656494553	4
0	6269	605.167953764142	3
0	6272	605.55173412147	2
0	6275	605.935514478798	1
0	6278	606.319294836126	0
0	6282	606.435349575069	1
0	6283	606.703075193454	0
0	6287	606.953944053865	1
0	6289	606.960326629032	2
0	6290	607.086855550782	1
0	6294	607.440073704087	2
0	6295	607.47063590811	1
0	6298	607.854416265438	0
0	6312	609.298869479549	1
0	6314	609.382057935143	2
0	6315	609.556403669862	1
0	6319	609.5838237732	2
0	6320	609.94018402719	1
0	6323	610.323964384518	0
0	6327	610.373542857456	1
0	6329	610.382508666743	2
0	6330	610.707744741846	1
0	6334	610.821105712846	2
0	6336	610.963113800413	3
0	6338	611.069587885732	4
0	6339	611.091525099174	3
0	6342	611.475305456502	2
0	6345	611.85908581383	1
0	6349	611.898121053279	2
0	6351	612.096844327526	3
0	6352	612.242866171158	2
0	6358	612.654328304375	3
0	6359	612.893528651865	2
0	6361	613.277309009193	1
0	6364	613.661089366521	0
0	6368	613.904766424922	1
0	6369	614.044869723849	0
0	6373	614.273561362618	1
0	6374	614.428650081177	0
0	6378	614.736632049803	1
0	6380	614.785964004143	2
0	6381	614.812430438505	1
0	6385	614.980712311287	2
0	6386	615.196210795833	1
0	6390	615.38326008394	2
0	6391	615.579991153161	1
0	6395	615.672767937981	2
0	6397	615.948626835751	3
0	6398	615.963771510489	2
0	6402	616.046549322468	3
0	6404	616.095298631898	4
0	6405	616.347551867817	3
0	6408	616.731332225145	2
0	6412	616.945966519109	3
0	6413	617.115112582473	2
0	6416	617.498892939801	1
0	6419	617.882673297129	0
0	6428	618.83040873207	1
0	6429	619.049368143916	0
0	6443	620.236216014611	1
0	6445	620.341386160741	2
0	6446	620.434669811098	1
0	6450	620.639757629772	2
0	6452	620.653647623341	3
0	6453	620.818450168426	2
0	6456	621.202230525754	1
0	6460	621.35257499603	2
0	6461	621.586010883082	1
0	6464	621.96979124041	0
0	6478	623.265935170272	1
0	6480	623.414308554553	2
0	6481	623.481527699199	1
0	6485	623.755124839391	2
0	6486	623.865308056527	1
0	6490	623.98140852823	2
0	6492	624.1518016233	3
0	6493	624.249088413855	2
0	6497	624.290639453273	3
0	6499	624.448349591995	4
0	6500	624.632868771183	3
0	6503	625.016649128511	2
0	6507	625.194585396096	3
0	6508	625.400429485839	2
0	6511	625.784209843167	1
0	6515	625.99883841994	2
0	6516	626.167990200495	1
0	6520	626.335773166033	2
0	6521	626.551770557823	1
0	6524	626.935550915151	0
0	6528	627.235583381813	1
0	6529	627.319331272479	0
0	6538	627.784489255493	1
0	6540	627.936470486	2
0	6542	627.993224873787	3
0	6544	628.082262717047	4
0	6545	628.103543101312	3
0	6549	628.345557112163	4
0	6550	628.48732345864	3
0	6553	628.871103815968	2
0	6557	629.062186731568	3
0	6558	629.254884173296	2
0	6561	629.638664530624	1
0	6564	630.022444887952	0
0	6568	630.19249064512	1
0	6570	630.336452327164	2
0	6571	630.40622524528	1
0	6574	630.790005602608	0
0	6578	631.114357606026	1
0	6579	631.173785959936	0
0	6588	632.118899776245	1
0	6589	632.348871037688	0
0	6593	632.37567449303	1
0	6594	632.732651395016	0
0	6598	632.849348776517	1
0	6600	632.901165542329	2
0	6602	633.044758534826	3
0	6604	633.091993388629	4
0	6605	633.116431752344	3
0	6609	633.197626994449	4
0	6612	633.767094233051	3
0	6615	634.04307342162	4
0	6616	634.150874590379	3
0	6619	634.534654947707	2
0	6622	634.918435305035	1
0	6625	635.302215662363	0
0	6629	635.531339200652	1
0	6630	635.685996019691	0
0	6644	637.459433058056	1
0	6645	637.785155244691	0
0	6649	637.946002996915	1
0	6650	638.168935602019	0
0	6654	638.441167635739	1
0	6655	638.552715959347	0
0	6659	638.75777717351	1
0	6661	638.837293641826	2
0	6662	638.936496316675	1
0	6666	639.12014777913	2
0	6668	639.180975388102	3
0	6670	639.281748180717	4
0	6671	639.320276674003	3
0	6675	639.518891759909	4
0	6677	639.642590196705	5
0	6678	639.704057031331	4
0	6682	639.720296100133	5
0	6684	639.957129407284	6
0	6685	640.087837388659	5
0	6688	640.471617745987	4
0	6692	640.78363672369	5
0	6693	640.855398103315	4
0	6697	640.971189233625	5
0	6698	641.239178460643	4
0	6702	641.468378553992	5
0	6703	641.622958817971	4
0	6705	641.622958817971	3
0	6707	642.006739175299	2
0	6711	642.077710148813	3
0	6713	642.133138495422	4
0	6715	642.133791927298	5
0	6717	642.371056368431	6
0	6718	642.390519532627	5
0	6721	642.774299889955	4
0	6724	643.158080247283	3
0	6728	643.409020290511	4
0	6729	643.541860604611	3
0	6733	643.693538961278	4
0	6734	643.925640961939	3
0	6736	643.925640961939	2
0	6738	644.309421319267	1
0	6741	644.693201676595	0
0	6750	645.198582931854	1
0	6752	645.303073188704	2
0	6753	645.510321574845	1
0	6756	645.894101932173	0
0	6760	646.268014811739	1
0	6761	646.277882289501	0
0	6790	649.237046057976	1
0	6792	649.322488707665	2
0	6794	649.539774886421	3
0	6795	649.580867578436	2
0	6799	649.666070592729	3
0	6800	649.964647935764	2
0	6803	650.348428293092	1
0	6807	650.4597317466	2
0	6808	650.73220865042	1
0	6811	651.115989007748	0
0	6815	651.198137654213	1
0	6817	651.260081547762	2
0	6818	651.499769365076	1
0	6822	651.628442827118	2
0	6823	651.883549722404	1
0	6827	652.262358885637	2
0	6828	652.267330079732	1
0	6831	652.65111043706	0
0	6850	658.117921543485	1
0	6851	658.126776495115	0
0	6855	658.169278245694	1
0	6856	658.510556852443	0
0	6860	658.709736673528	1
0	6863	659.16121933315	0
0	6866	659.168570655291	1
0	6868	659.345548639354	2
0	6870	659.427009148526	3
0	6871	659.544999690478	2
0	6874	659.928780047806	1
0	6878	660.078668019105	2
0	6880	660.203465186785	3
0	6882	660.236067154797	4
0	6883	660.312560405134	3
0	6887	660.539053522214	4
0	6888	660.696340762462	3
0	6892	661.043114107379	4
0	6893	661.08012111979	3
0	6897	661.292109879961	4
0	6898	661.463901477118	3
0	6902	661.673654292091	4
0	6903	661.847681834446	3
0	6906	662.231462191774	2
0	6909	662.615242549102	1
0	6913	662.867858559229	2
0	6914	662.99902290643	1
0	6917	663.382803263758	0
0	6941	667.256263643533	1
0	6942	667.598374266068	0
0	6946	667.615767674335	1
0	6947	667.982154623396	0
0	6956	668.485333362739	1
0	6958	668.621080340909	2
0	6959	668.807240505423	1
0	6963	668.95273370645	2
0	6964	669.191020862751	1
0	6967	669.574801220079	0
0	6971	669.661372687561	1
0	6973	669.697757548974	2
0	6975	669.737727916635	3
0	6976	669.958581577407	2
0	6980	670.185844791022	3
0	6981	670.342361934735	2
0	6985	670.549268033619	3
0	6986	670.726142292063	2
0	6989	671.109922649391	1
0	6993	671.194104369316	2
0	6995	671.290248131921	3
0	6996	671.493703006719	2
0	6999	671.877483364047	1
0	7003	672.217361557013	2
0	7004	672.261263721375	1
0	7007	672.645044078703	0
0	7011	672.949016408496	1
0	7012	673.028824436031	0
0	7041	677.492689889012	1
0	7042	677.757237991176	0
0	7046	677.847975452355	1
0	7048	677.904243952656	2
0	7049	678.141018348504	1
0	7052	678.524798705832	0
0	7061	679.07529457375	1
0	7063	679.28723725179	2
0	7064	679.316573924161	1
0	7068	679.644358585173	2
0	7069	679.700354281489	1
0	7072	680.084134638817	0
0	7081	680.910611799331	1
0	7082	681.183332763752	0
0	7096	682.75850389694	1
0	7097	683.031556434516	0
0	7101	683.122693788301	1
0	7103	683.358829206879	2
0	7104	683.415336791844	1
0	7108	683.444800941376	2
0	7110	683.461804940973	3
0	7112	683.7489870098	4
0	7113	683.799117149172	3
0	7119	684.197806063348	4
0	7120	684.449779629879	3
0	7122	684.833559987207	2
0	7126	684.989365139898	3
0	7127	685.217340344535	2
0	7130	685.601120701863	1
0	7133	685.984901059191	0
0	7137	686.272599905577	1
0	7138	686.368681416519	0
0	7142	686.621470238238	1
0	7143	686.752461773847	0
0	7147	687.108448651107	1
0	7148	687.136242131175	0
0	7152	687.207287056032	1
0	7153	687.520022488503	0
0	7157	687.727351698474	1
0	7159	687.74750174652	2
0	7160	687.903802845831	1
0	7163	688.287583203159	0
0	7167	688.495778319451	1
0	7168	688.671363560487	0
0	7172	688.813606390118	1
0	7174	688.903344400852	2
0	7175	689.055143917815	1
0	7179	689.20714623612	2
0	7181	689.207478710749	3
0	7182	689.438924275143	2
0	7186	689.526477408233	3
0	7187	689.822704632471	2
0	7191	689.877658714433	3
0	7193	690.011309273527	4
0	7195	690.202498483153	5
0	7196	690.206484989799	4
0	7199	690.590265347127	3
0	7203	690.771960464813	4
0	7205	690.890307697017	5
0	7207	690.966977317527	6
0	7208	690.974045704455	5
0	7212	691.228979390949	6
0	7214	691.276392975251	7
0	7215	691.357826061783	6
0	7218	691.741606419111	5
0	7222	691.92522732886	6
0	7224	692.086277271184	7
0	7225	692.125386776439	6
0	7228	692.509167133767	5
0	7231	692.892947491095	4
0	7233	692.892947491095	3
0	7236	693.173013444971	4
0	7238	693.255654278761	5
0	7239	693.276727848423	4
0	7241	693.276727848423	3
0	7243	693.660508205751	2
0	7247	693.680839917412	3
0	7248	694.044288563079	2
0	7252	694.201015720979	3
0	7253	694.428068920407	2
0	7257	694.617697688934	3
0	7258	694.811849277735	2
0	7261	695.195629635063	1
0	7264	695.579409992391	0
0	7268	695.866732095443	1
0	7269	695.963190349719	0
0	7288	698.496764353543	1
0	7289	698.54555881253	0
0	7298	699.478783391815	1
0	7300	699.706844043483	2
0	7301	699.769687610319	1
0	7305	699.865496129312	2
0	7306	700.153467967647	1
0	7310	700.179967654327	2
0	7311	700.537248324975	1
0	7314	700.921028682303	0
0	7323	701.790281844154	1
0	7324	701.996605359528	0
0	7328	702.045689730451	1
0	7329	702.380385716856	0
0	7338	704.025097690736	1
0	7340	704.031799643144	2
0	7341	704.318035675508	1
0	7345	704.653243078445	2
0	7346	704.701816032836	1
0	7350	704.96909923166	2
0	7352	705.062442572398	3
0	7353	705.085596390164	2
0	7356	705.469376747492	1
0	7359	705.85315710482	0
0	7370	706.740923156055	1
0	7371	706.921114985566	0
0	7379	707.9244371357	1
0	7380	708.14033918524	0
0	7384	708.35730198387	1
0	7385	708.524119542568	0
0	7394	708.956688741946	1
0	7395	709.303851219443	0
0	7404	710.475413381144	1
0	7405	710.58457600531	0
0	7414	711.602253206446	1
0	7415	711.605398798225	0
0	7419	711.976138780762	1
0	7420	711.989179155553	0
0	7424	712.069021529185	1
0	7425	712.372959512881	0
0	7429	712.736284290626	1
0	7430	712.756739870209	0
0	7434	713.008926954503	1
0	7435	713.140520227537	0
0	7444	715.05041588686	1
0	7445	715.370905068101	0
0	7459	716.765238625289	1
0	7460	717.035586487188	0
0	7474	718.532812013007	1
0	7475	718.8220774953	0
0	7479	719.064496701761	1
0	7480	719.205857852628	0
0	7484	719.254131900601	1
0	7486	719.521875417318	2
0	7487	719.589638209956	1
0	7491	719.686685103109	2
0	7492	719.973418567284	1
0	7495	720.357198924612	0
0	7509	722.070637209467	1
0	7510	722.33114212225	0
0	7519	722.937748129912	1
0	7520	723.187841722679	0
0	7524	723.406045917172	1
0	7526	723.526873504418	2
0	7527	723.571622080007	1
0	7530	723.955402437335	0
0	7544	725.41244669563	1
0	7546	725.659536650081	2
0	7547	725.726465816756	1
0	7551	725.943089174382	2
0	7552	726.110246174084	1
0	7555	726.494026531412	0
0	7559	726.707737852733	1
0	7560	726.87780688874	0
0	7589	730.651457123372	1
0	7590	730.77537282506	0
0	7594	730.79156422729	1
0	7595	731.159153182388	0
0	7599	731.519396725905	1
0	7600	731.542933539716	0
0	7609	732.757491514016	1
0	7611	732.945175033889	2
0	7612	732.952356708555	1
0	7616	732.968451191988	2
0	7617	733.336137065883	1
0	7621	733.414294055342	2
0	7624	733.98679954659	1
0	7627	734.244995812666	2
0	7628	734.370579903918	1
0	7631	734.754360261246	0
0	7650	737.72144117254	1
0	7651	738.049984009842	0
0	7660	738.528949446879	1
0	7661	738.875329599318	0
0	7665	738.982480358538	1
0	7666	739.259109956646	0
0	7670	739.263217239401	1
0	7672	739.322645401467	2
0	7674	739.47976068285	3
0	7676	739.491433461707	4
0	7678	739.533421585819	5
0	7679	739.642890313974	4
0	7683	739.682371349803	5
0	7684	740.026670671302	4
0	7688	740.120686497885	5
0	7689	740.41045102863	4
0	7692	740.794231385958	3
0	7695	741.178011743286	2
0	7699	741.452874124904	3
0	7700	741.561792100614	2
0	7702	741.561792100614	1
0	7705	741.675657373761	2
0	7707	741.829777425594	3
0	7708	741.945572457942	2
0	7711	742.32935281527	1
0	7714	742.713133172598	0
0	7718	742.882435486898	1
0	7720	742.89354788546	2
0	7722	742.911223811263	3
0	7724	743.078476004485	4
0	7725	743.096913529926	3
0	7729	743.144957091405	4
0	7731	743.161011961298	5
0	7733	743.317092245611	6
0	7735	743.440542595868	7
0	7737	743.475120286412	8
0	7738	743.480693887254	7
0	7742	743.638141583088	8
0	7743	743.864474244582	7
0	7747	744.089304897385	8
0	7748	744.24825460191	7
0	7751	744.632034959238	6
0	7754	745.015815316566	5
0	7756	745.015815316566	4
0	7759	745.025463391527	5
0	7760	745.399595673894	4
0	7762	745.399595673894	3
0	7763	745.399595673894	2
0	7764	745.399595673894	1
0	7766	745.783376031222	0
0	7775	748.282403159884	1
0	7777	748.330069745151	2
0	7778	748.455121623472	1
0	7782	748.660131998129	2
0	7783	748.8389019808	1
0	7786	749.222682338128	0
0	7795	750.757685480942	1
0	7796	750.810899784772	0
0	7800	750.869547575732	1
0	7802	750.871129206584	2
0	7804	751.122220621183	3
0	7805	751.1946801421	2
0	7808	751.578460499428	1
0	7811	751.962240856756	0
0	7815	751.992262574965	1
0	7817	752.311849975956	2
0	7818	752.346021214084	1
0	7822	752.660904929981	2
0	7823	752.729801571412	1
0	7826	753.11358192874	0
0	7830	753.155152820187	1
0	7831	753.497362286068	0
0	7840	754.557272297898	1
0	7842	754.705162439863	2
0	7843	754.78669422865	1
0	7846	755.170474585978	0
0	7870	760.923432831206	1
0	7871	761.101821702401	0
0	7891	765.029866707036	1
0	7892	765.162556688101	0
0	7916	767.779923937277	1
0	7918	767.927156605586	2
0	7919	768.043284024938	1
0	7922	768.427064382266	0
0	7931	768.888525404053	1
0	7932	769.198356728911	0
0	7936	769.571966044101	1
0	7937	769.582137086239	0
0	7941	769.611946860322	1
0	7943	769.855095481049	2
0	7944	769.965917443567	1
0	7947	770.349697800895	0
0	7966	772.143658388446	1
0	7968	772.171480708735	2
0	7969	772.243645533084	1
0	7973	772.344391609539	2
0	7974	772.627425890412	1
0	7978	772.741149035697	2
0	7979	773.01120624774	1
0	7983	773.279437998794	2
0	7985	773.356673821386	3
0	7987	773.367783350462	4
0	7988	773.394986605068	3
0	7992	773.453719487774	4
0	7993	773.778766962396	3
0	7997	774.094582561241	4
0	7998	774.162547319724	3
0	8002	774.20205006676	4
0	8003	774.546327677052	3
0	8006	774.93010803438	2
0	8010	775.289556896058	3
0	8011	775.313888391708	2
0	8014	775.697668749036	1
0	8018	775.836147019346	2
0	8019	776.081449106364	1
0	8022	776.465229463692	0
0	8026	776.48342787281	1
0	8028	776.777268283305	2
0	8029	776.84900982102	1
0	8033	777.048100210232	2
0	8034	777.232790178348	1
0	8038	777.437798025641	2
0	8040	777.491382583803	3
0	8041	777.616570535676	2
0	8044	778.000350893004	1
0	8047	778.384131250332	0
0	8091	783.538928416438	1
0	8092	783.910977479885	0
0	8101	784.730753462411	1
0	8102	784.947380492859	0
0	8126	787.418625980193	1
0	8127	787.719136123554	0
0	8131	787.770466445981	1
0	8133	788.023241278684	2
0	8134	788.102916480882	1
0	8139	788.753578961589	0
0	8142	788.758942419648	1
0	8143	789.137359318917	0
0	8152	789.90406191471	1
0	8154	790.138408453425	2
0	8155	790.28741112588	1
0	8159	790.519523669794	2
0	8160	790.671191483208	1
0	8163	791.054971840536	0
0	8167	791.299899169114	1
0	8168	791.438752197864	0
0	8172	791.469513263919	1
0	8173	791.822532555192	0
0	8182	793.890854896221	1
0	8183	793.89467903723	0
0	8192	795.259460200392	1
0	8194	795.34680827347	2
0	8195	795.41720722737	1
0	8198	795.800987584698	0
0	8212	797.099246251392	1
0	8213	797.399886512405	0
0	8217	797.571696672947	1
0	8218	797.783666869733	0
0	8222	797.96774632293	1
0	8224	798.125378247853	2
0	8225	798.167447227061	1
0	8228	798.551227584389	0
0	8232	798.67381653941	1
0	8233	798.935007941717	0
0	8237	799.291244447349	1
0	8238	799.318788299045	0
0	8242	799.344307986304	1
0	8243	799.702568656373	0
0	8247	799.745776485641	1
0	8249	799.881008815096	2
0	8250	800.086349013701	1
0	8254	800.268703562055	2
0	8255	800.470129371029	1
0	8258	800.853909728357	0
0	8262	801.00815909899	1
0	8264	801.139192343831	2
0	8265	801.237690085685	1
0	8269	801.423665418371	2
0	8271	801.474621288977	3
0	8272	801.621470443013	2
0	8276	801.786706729807	3
0	8277	802.005250800341	2
0	8281	802.213019554549	3
0	8283	802.379634973684	4
0	8284	802.389031157669	3
0	8287	802.772811514997	2
0	8291	802.792975200381	3
0	8292	803.156591872325	2
0	8295	803.540372229653	1
0	8298	803.924152586981	0
0	8307	804.557225818396	1
0	8308	804.828068591166	0
0	8312	805.037382846162	1
0	8314	805.106033204974	2
0	8315	805.211848948494	1
0	8319	805.364214088109	2
0	8321	805.432342639396	3
0	8323	805.565010838333	4
0	8324	805.595629305822	3
0	8328	805.946330137045	4
0	8330	805.966230936569	5
0	8331	805.97940966315	4
0	8335	806.288857398519	5
0	8337	806.307472000442	6
0	8338	806.363190020478	5
0	8342	806.409231436002	6
0	8344	806.464461235748	7
0	8345	806.746970377806	6
0	8349	806.953636294754	7
0	8350	807.130750735134	6
0	8354	807.46992103718	7
0	8355	807.514531092462	6
0	8359	807.719245162175	7
0	8361	807.721678180867	8
0	8362	807.89831144979	7
0	8366	808.134651464486	8
0	8367	808.282091807118	7
0	8369	808.282091807118	6
0	8370	808.282091807118	5
0	8371	808.282091807118	4
0	8374	808.558861882322	5
0	8375	808.665872164446	4
0	8379	808.853977137786	5
0	8381	809.033145010929	6
0	8382	809.049652521774	5
0	8385	809.433432879102	4
0	8388	809.81721323643	3
0	8391	810.200993593758	2
0	8395	810.282138406633	3
0	8397	810.286188562215	4
0	8399	810.33587896132	5
0	8401	810.475297910542	6
0	8402	810.584773951086	5
0	8404	810.584773951086	4
0	8408	811.235436431793	3
0	8411	811.486527428903	4
0	8412	811.619216789121	3
0	8415	812.002997146449	2
0	8418	812.386777503777	1
0	8420	812.386777503777	0
0	8423	812.534434397076	1
0	8424	812.770557861105	0
0	8428	812.84379551164	1
0	8430	813.138581729796	2
0	8431	813.154338218433	1
0	8435	813.310489027225	2
0	8436	813.538118575761	1
0	8440	813.616367116488	2
0	8441	813.921898933089	1
0	8445	814.098032942753	2
0	8446	814.305679290417	1
0	8449	814.689459647745	0
0	8453	814.842401992249	1
0	8455	815.071787965514	2
0	8456	815.073240005073	1
0	8460	815.129225520662	2
0	8461	815.457020362401	1
0	8465	815.614134978846	2
0	8466	815.840800719729	1
0	8470	815.866012287114	2
0	8471	816.224581077057	1
0	8475	816.462763100946	2
0	8476	816.608361434385	1
0	8480	816.784506861999	2
0	8482	816.835831480073	3
0	8483	816.992141791713	2
0	8487	817.111028803848	3
0	8488	817.375922149041	2
0	8491	817.759702506369	1
0	8495	817.894489779236	2
0	8497	817.907103299622	3
0	8499	817.948509963202	4
0	8501	818.019654280467	5
0	8502	818.143482863697	4
0	8505	818.527263221025	3
0	8509	818.830034819061	4
0	8510	818.911043578353	3
0	8513	819.294823935681	2
0	8517	819.370700867462	3
0	8519	819.606062849906	4
0	8520	819.678604293009	3
0	8523	820.062384650337	2
0	8526	820.446165007665	1
0	8529	820.829945364993	0
0	8538	822.009364775377	1
0	8539	822.132743241945	0
0	8548	823.429592588348	1
0	8549	823.548451880069	0
0	8553	823.644204850372	1
0	8555	823.778996341444	2
0	8557	823.811032061986	3
0	8559	823.821525019051	4
0	8561	823.844465144872	5
0	8562	823.932232237397	4
0	8566	824.087145416283	5
0	8568	824.270220785578	6
0	8569	824.316012594725	5
0	8572	824.699792952053	4
0	8575	825.083573309381	3
0	8579	825.377245471031	4
0	8581	825.428857632817	5
0	8582	825.467353666709	4
0	8586	825.623582888327	5
0	8588	825.688926736399	6
0	8590	825.816713376801	7
0	8591	825.851134024037	6
0	8593	825.851134024037	5
0	8595	826.234914381365	4
0	8599	826.345145809854	5
0	8600	826.618694738693	4
0	8604	826.960487032613	5
0	8605	827.002475096021	4
0	8609	827.109190906044	5
0	8610	827.386255453349	4
0	8614	827.479538593883	5
0	8615	827.770035810677	4
0	8617	827.770035810677	3
0	8620	828.038191284223	4
0	8621	828.153816168005	3
0	8624	828.537596525333	2
0	8628	828.609634125177	3
0	8629	828.921376882661	2
0	8632	829.305157239989	1
0	8636	829.516888016866	2
0	8638	829.670862942258	3
0	8639	829.688937597317	2
0	8643	829.750695366864	3
0	8645	829.82898219804	4
0	8646	830.072717954645	3
0	8649	830.456498311973	2
0	8652	830.840278669301	1
0	8655	831.224059026629	0
0	8659	831.245709300621	1
0	8661	831.502622243921	2
0	8665	831.829481792977	3
0	8666	831.874721507336	2
0	8668	832.258501864664	1
0	8672	832.585972175656	2
0	8673	832.642282221992	1
0	8677	832.849296745404	2
0	8678	833.02606257932	1
0	8681	833.409842936648	0
0	8695	834.571463927876	1
0	8697	834.793743633164	2
0	8699	834.923806226975	3
0	8700	834.924490283038	2
0	8703	835.308270640366	1
0	8706	835.692050997694	0
0	8710	835.736854181852	1
0	8712	835.897358465984	2
0	8713	836.075831355022	1
0	8717	836.440101329266	2
0	8718	836.45961171235	1
0	8722	836.475748676081	2
0	8724	836.591106349666	3
0	8725	836.843392069678	2
0	8729	836.916840198274	3
0	8730	837.227172427006	2
0	8734	837.533409329269	3
0	8735	837.610952784334	2
0	8738	837.994733141662	1
0	8741	838.37851349899	0
0	8745	838.416162394787	1
0	8746	838.762293856318	0
0	8770	841.450352228886	1
0	8771	841.545242928747	0
0	8775	841.915660210674	1
0	8776	841.929023286075	0
0	8785	842.512320090556	1
0	8787	842.793963205406	2
0	8788	842.859770181376	1
0	8792	843.119391926152	2
0	8794	843.202145490703	3
0	8795	843.243550538704	2
0	8799	843.400596703815	3
0	8801	843.411785994248	4
0	8802	843.627330896032	3
0	8805	844.01111125336	2
0	8809	844.276970687245	3
0	8811	844.361336239424	4
0	8812	844.394891610688	3
0	8815	844.778671968016	2
0	8819	844.967159301381	3
0	8820	845.162452325344	2
0	8824	845.280944685579	3
0	8825	845.546232682672	2
0	8829	845.902205169888	3
0	8830	845.93001304	2
0	8833	846.313793397328	1
0	8836	846.697573754656	0
0	8840	846.902409917309	1
0	8842	846.979474773201	2
0	8843	847.081354111984	1
0	8847	847.114629565317	2
0	8849	847.308686196499	3
0	8851	847.362495057313	4
0	8853	847.417529714695	5
0	8854	847.465134469312	4
0	8858	847.542084513346	5
0	8859	847.84891482664	4
0	8863	847.951689431449	5
0	8864	848.232695183968	4
0	8867	848.616475541296	3
0	8870	849.000255898624	2
0	8873	849.384036255952	1
0	8875	849.384036255952	0
0	8893	853.329385608541	1
0	8894	853.450201725823	0
0	8903	854.634191493524	1
0	8904	854.810888385261	0
0	8913	855.399743062258	1
0	8915	855.670514937332	2
0	8917	855.724542867807	3
0	8920	856.023583044505	2
0	8922	856.407363401833	1
0	8925	856.791143759161	0
0	8944	858.387344143902	1
0	8946	858.696013717358	2
0	8947	858.696709280467	1
0	8951	859.064382656376	2
0	8952	859.080489637795	1
0	8956	859.228216062353	2
0	8958	859.287853153594	3
0	8960	859.361238603806	4
0	8962	859.419518022348	5
0	8963	859.464269995123	4
0	8967	859.721196141119	5
0	8968	859.848050352451	4
0	8972	859.906100741645	5
0	8973	860.231830709779	4
0	8977	860.386918816372	5
0	8978	860.615611067107	4
0	8982	860.683551086523	5
0	8983	860.999391424435	4
0	8986	861.383171781763	3
0	8990	861.660559503612	4
0	8991	861.766952139091	3
0	8993	861.766952139091	2
0	8995	862.150732496419	1
0	8998	862.534512853747	0
0	9012	864.314324544481	1
0	9013	864.541377685353	0
0	9017	864.559649876236	1
0	9018	864.925158042681	0
0	9037	867.343894368515	1
0	9038	867.604002153836	0
0	9052	869.202947671133	1
0	9053	869.297151576558	0
0	9067	871.471850170572	1
0	9068	871.550691083044	0
0	9072	871.931781523408	1
0	9073	871.934471440372	0
0	9077	872.135014492312	1
0	9078	872.3182517977	0
0	9082	872.37437924042	1
0	9084	872.627330315801	2
0	9085	872.702032155028	1
0	9088	873.085812512356	0
0	9092	873.206963519707	1
0	9093	873.469592869684	0
0	9112	875.560929459165	1
0	9113	875.934155405231	0
0	9122	877.106398710138	1
0	9124	877.180027696896	2
0	9125	877.202971836493	1
0	9128	877.586752193821	0
0	9132	877.626044174025	1
0	9134	877.860987030837	2
0	9135	877.970532551149	1
0	9138	878.354312908477	0
0	9147	879.647876129404	1
0	9148	879.958122022318	0
0	9173	885.06290446686	1
0	9175	885.186547525745	2
0	9176	885.32500124826	1
0	9180	885.657016156846	2
0	9181	885.708781605588	1
0	9184	886.092561962916	0
0	9198	888.287128289016	1
0	9200	888.364775385848	2
0	9201	888.578910976531	1
0	9205	888.955551627693	2
0	9206	888.962691333859	1
0	9210	889.344819183113	2
0	9211	889.346471691187	1
0	9215	889.416650681701	2
0	9216	889.730252048515	1
0	9220	889.99753144769	2
0	9221	890.114032405843	1
0	9224	890.497812763171	0
0	9233	891.467668449331	1
0	9234	891.790935637527	0
0	9238	891.945189971718	1
0	9239	892.174715994855	0
0	9243	892.349996161934	1
0	9244	892.558496352183	0
0	9248	892.578732122419	1
0	9250	892.652185859069	2
0	9252	892.683493823815	3
0	9253	892.942276709511	2
0	9256	893.326057066839	1
0	9259	893.709837424167	0
0	9278	896.471202468657	1
0	9279	896.676393711005	0
0	9288	897.453548362207	1
0	9289	897.655523115432	0
0	9293	897.669042633504	1
0	9295	897.714649294799	2
0	9296	898.03930347276	1
0	9300	898.298764771783	2
0	9301	898.423083830088	1
0	9305	898.773895467759	2
0	9306	898.806864187416	1
0	9309	899.190644544744	0
0	9313	899.403210551019	1
0	9314	899.574424902072	0
0	9318	899.755531346965	1
0	9319	899.9582052594	0
0	9328	900.582029212945	1
0	9330	900.622827616234	2
0	9332	900.672257671959	3
0	9333	900.843365428755	2
0	9337	901.091735402284	3
0	9339	901.095573744688	4
0	9340	901.227145786083	3
0	9344	901.246323099082	4
0	9346	901.442537091088	5
0	9347	901.610926143411	4
0	9351	901.615271762391	5
0	9353	901.699802959753	6
0	9354	901.994706500739	5
0	9358	902.264014721699	6
0	9360	902.288487411608	7
0	9361	902.378486858067	6
0	9365	902.513863894362	7
0	9366	902.762267215395	6
0	9370	902.968831862154	7
0	9371	903.146047572723	6
0	9375	903.313698298202	7
0	9376	903.529827930051	6
0	9378	903.529827930051	5
0	9379	903.529827930051	4
0	9382	903.568234778797	5
0	9384	903.606451995609	6
0	9385	903.913608287379	5
0	9389	904.024877312894	6
0	9391	904.146288950179	7
0	9392	904.297388644707	6
0	9394	904.297388644707	5
0	9396	904.681169002035	4
0	9400	904.948828973988	5
0	9401	905.064949359363	4
0	9404	905.448729716691	3
0	9406	905.448729716691	2
0	9409	905.738546977642	3
0	9410	905.832510074019	2
0	9413	906.216290431347	1
0	9417	906.449916267527	2
0	9418	906.600070788675	1
0	9421	906.983851146003	0
0	9425	907.17670349408	1
0	9427	907.345008888846	2
0	9428	907.367631503331	1
0	9432	907.659817759221	2
0	9435	908.018293984038	1
0	9437	908.402074341366	0
0	9461	911.340436613832	1
0	9462	911.507488567766	0
0	9481	914.118845843288	1
0	9482	914.341715874533	0
0	9486	914.360161908353	1
0	9488	914.640983945889	2
0	9489	914.725496231861	1
0	9493	914.961859740317	2
0	9494	915.109276589189	1
0	9498	915.342661566609	2
0	9500	915.46143303837	3
0	9501	915.493056946517	2
0	9504	915.876837303845	1
0	9507	916.260617661173	0
0	9516	916.837615891201	1
0	9517	917.042211141471	0
0	9521	917.062397660106	1
0	9522	917.425991498799	0
0	9526	917.503923523883	1
0	9527	917.809771856127	0
0	9531	917.830242825231	1
0	9532	918.193552213455	0
0	9541	918.741547943289	1
0	9542	919.097887134541	0
0	9551	920.415996560646	1
0	9552	920.672986058494	0
0	9556	920.812545511651	1
0	9557	921.056766415822	0
0	9566	921.801114083931	1
0	9567	921.857929435147	0
0	9571	921.895020720191	1
0	9572	922.241709792475	0
0	9576	922.287991876296	1
0	9577	922.625490149803	0
0	9581	922.816862475353	1
0	9582	923.009270507131	0
0	9596	925.41879337492	1
0	9597	925.617873208031	0
0	9611	928.234169929957	1
0	9613	928.331603279017	2
0	9614	928.494505338442	1
0	9617	928.87828569577	0
0	9621	928.904625783464	1
0	9622	929.262066053098	0
0	9626	929.302336242876	1
0	9628	929.321756141894	2
0	9630	929.397531050318	3
0	9632	929.515796387508	4
0	9634	929.610598070307	5
0	9635	929.645846410426	4
0	9638	930.029626767754	3
0	9641	930.413407125082	2
0	9645	930.559733829167	3
0	9646	930.79718748241	2
0	9649	931.180967839738	1
0	9653	931.358596623577	2
0	9655	931.372064465068	3
0	9657	931.537004885568	4
0	9658	931.564748197066	3
0	9662	931.697709713986	4
0	9664	931.763781210677	5
0	9665	931.948528554394	4
0	9668	932.332308911722	3
0	9671	932.71608926905	2
0	9675	933.01093842555	3
0	9676	933.099869626378	2
0	9680	933.423558330589	3
0	9681	933.483649983706	2
0	9686	934.134312464413	1
0	9689	934.220431192668	2
0	9690	934.518092821741	1
0	9693	934.901873179069	0
0	9697	935.061384464844	1
0	9698	935.285653536397	0
0	9702	935.324996594887	1
0	9704	935.536202542544	2
0	9705	935.669433893725	1
0	9709	935.695324303988	2
0	9711	935.76383996908	3
0	9712	936.053214251053	2
0	9716	936.277858668704	3
0	9717	936.436994608381	2
[...]
8	6831	652.65111043706	0.388751551423
8	6851	658.126776495115	0.00885495163
8	6856	658.510556852443	0.341278606749
8	6863	659.16121933315	0.451482659622
8	6871	659.544999690478	0.376429035187
8	6874	659.928780047806	0.583231408452
8	6883	660.312560405134	0.885551256608
8	6888	660.696340762462	0.617672743357
8	6893	661.08012111979	0.876655933005
8	6898	661.463901477118	1.227834322321
8	6903	661.847681834446	1.308628312232
8	6906	662.231462191774	1.188348084395
8	6909	662.615242549102	1.323132669141
8	6914	662.99902290643	1.325368614339
8	6917	663.382803263758	0.514944704529
8	6942	667.598374266068	0.342110622535
8	6947	667.982154623396	0.366386949061
8	6959	668.807240505423	0.321907142684
8	6964	669.191020862751	0.569940521842
8	6967	669.574801220079	0.622067513629
8	6976	669.958581577407	0.297208889846
8	6981	670.342361934735	0.644604385761
8	6986	670.726142292063	0.988414375428
8	6989	671.109922649391	0.924077858369
8	6996	671.493703006719	0.9444349731
8	6999	671.877483364047	0.683378994731
8	7004	672.261263721375	0.971015589454
8	7007	672.645044078703	0.42768252169
8	7012	673.028824436031	0.079808027535
8	7042	677.757237991176	0.264548102164
8	7049	678.141018348504	0.293042896149
8	7052	678.524798705832	0.620554753176
8	7064	679.316573924161	0.241279350411
8	7069	679.700354281489	0.413117029699
8	7072	680.084134638817	0.439776053644
8	7082	681.183332763752	0.272720964421
8	7097	683.031556434516	0.273052537576
8	7104	683.415336791844	0.292643003543
8	7113	683.799117149172	0.440287942293
8	7120	684.449779629879	1.004978688503
8	7122	684.833559987207	1.371755046234
8	7127	685.217340344535	1.468353334735
8	7130	685.601120701863	1.403314638515
8	7133	685.984901059191	0.995535919293
8	7138	686.368681416519	0.096081510942
8	7143	686.752461773847	0.130991535609
8	7148	687.136242131175	0.027793480068
8	7153	687.520022488503	0.312735432471
8	7160	687.903802845831	0.176451147357
8	7163	688.287583203159	0.540081456639
8	7168	688.671363560487	0.175585241036
8	7175	689.055143917815	0.241537527697
8	7182	689.438924275143	0.535579874291
8	7187	689.822704632471	0.615558396351
8	7196	690.206484989799	0.99900627905
8	7199	690.590265347127	1.063787938894
8	7208	690.974045704455	1.096386990022
8	7215	691.357826061783	1.346516788256
8	7218	691.741606419111	1.539107935958
8	7225	692.125386776439	1.353426311626
8	7228	692.509167133767	1.61885943675
8	7231	692.892947491095	1.925970173568
8	7233	692.892947491095	1.663968100146
8	7239	693.276727848423	2.000334873172
8	7241	693.276727848423	1.351500519563
8	7243	693.660508205751	1.574230934567
8	7248	694.044288563079	0.871275118108
8	7253	694.428068920407	1.172414641646
8	7258	694.811849277735	1.131009360323
8	7261	695.195629635063	0.994613914084
8	7264	695.579409992391	0.961712303457
8	7269	695.963190349719	0.096458254276
8	7289	698.54555881253	0.048794458987
8	7301	699.769687610319	0.290904218504
8	7306	700.153467967647	0.446623924164
8	7311	700.537248324975	0.671752195663
8	7314	700.921028682303	0.741061027976
8	7324	701.996605359528	0.206323515374
8	7329	702.380385716856	0.334695986405
8	7341	704.318035675508	0.292937984772
8	7346	704.701816032836	0.670016389692
8	7353	705.085596390164	0.432353311719
8	7356	705.469376747492	0.500277515832
8	7359	705.85315710482	0.790714532422
8	7371	706.921114985566	0.180191829511
8	7380	708.14033918524	0.21590204954
8	7385	708.524119542568	0.166817558698
8	7395	709.303851219443	0.347162477497
8	7405	710.58457600531	0.109162624166
8	7415	711.605398798225	0.003145591779
8	7420	711.989179155553	0.013040374791
8	7425	712.372959512881	0.303937983696
8	7430	712.756739870209	0.020455579583
8	7435	713.140520227537	0.131593273034
8	7445	715.370905068101	0.320489181241
8	7460	717.035586487188	0.270347861899
8	7475	718.8220774953	0.289265482293
8	7480	719.205857852628	0.141361150867
8	7487	719.589638209956	0.335506309355
8	7492	719.973418567284	0.451543149966
8	7495	720.357198924612	0.670513821503
8	7510	722.33114212225	0.260504912783
8	7520	723.187841722679	0.250093592767
8	7527	723.571622080007	0.165576162835
8	7530	723.955402437335	0.428528932917
8	7547	725.726465816756	0.314019121126
8	7552	726.110246174084	0.450709524003
8	7555	726.494026531412	0.55093735703
8	7560	726.87780688874	0.170069036007
8	7590	730.77537282506	0.123915701688
8	7595	731.159153182388	0.367588955098
8	7600	731.542933539716	0.023536813811
8	7612	732.952356708555	0.194865194539
8	7617	733.336137065883	0.390962031994
8	7624	733.98679954659	1.018348354602
8	7628	734.370579903918	0.956285848576
8	7631	734.754360261246	0.50936444858
8	7651	738.049984009842	0.328542837302
8	7661	738.875329599318	0.346380152439
8	7666	739.259109956646	0.276629598108
8	7679	739.642890313974	0.379673074573
8	7684	740.026670671302	0.704025269835
8	7689	740.41045102863	0.93069034578
8	7692	740.794231385958	1.302797924251
8	7695	741.178011743286	1.644590157467
8	7700	741.561792100614	1.879420750811
8	7702	741.561792100614	1.441105602729
8	7708	741.945572457942	0.492698333038
8	7711	742.32935281527	0.653695441509
8	7714	742.713133172598	0.883355747004
8	7725	743.096913529926	0.214478043028
8	7738	743.480693887254	0.587146001794
8	7743	743.864474244582	0.953250433319
8	7748	744.24825460191	1.169778597425
8	7751	744.632034959238	1.487077867833
8	7754	745.015815316566	1.854803355268
8	7756	745.015815316566	1.698723070955
8	7760	745.399595673894	1.959053078026
8	7762	745.399595673894	1.924475387482
8	7763	745.399595673894	1.761454090806
8	7764	745.399595673894	1.310290776509
8	7766	745.783376031222	0.757912639695
8	7778	748.455121623472	0.172718463588
8	7783	748.8389019808	0.508832235649
8	7786	749.222682338128	0.562550339999
8	7796	750.810899784772	0.05321430383
8	7805	751.1946801421	0.325132566368
8	7808	751.578460499428	0.707331292844
8	7811	751.962240856756	0.840020235573
8	7818	752.346021214084	0.353758639119
8	7823	752.729801571412	0.417951595456
8	7826	753.11358192874	0.452676998759
8	7831	753.497362286068	0.342209465881
8	7843	754.78669422865	0.229421930752
8	7846	755.170474585978	0.465312146115
8	7871	761.101821702401	0.178388871195
8	7892	765.162556688101	0.132689981065
8	7919	768.043284024938	0.263360087661
8	7922	768.427064382266	0.49990777668
8	7932	769.198356728911	0.309831324858
8	7937	769.582137086239	0.010171042138
8	7944	769.965917443567	0.353970583245
8	7947	770.349697800895	0.494602319846
8	7969	772.243645533084	0.099987144638
8	7974	772.627425890412	0.455945181677
8	7979	773.01120624774	0.666814638201
8	7988	773.394986605068	0.653837569371
8	7993	773.778766962396	0.499328963602
8	7998	774.162547319724	0.805873498338
8	8003	774.546327677052	1.17854432659
8	8006	774.93010803438	1.476388546606
8	8011	775.313888391708	1.219305830467
8	8014	775.697668749036	1.495618682276
8	8019	776.081449106364	0.791892210306
8	8022	776.465229463692	0.629082444346
8	8029	776.84900982102	0.36558194821
8	8034	777.232790178348	0.455521895043
8	8041	777.616570535676	0.568470325444
8	8044	778.000350893004	0.562552867363
8	8047	778.384131250332	0.892748666529
8	8092	783.910977479885	0.372049063447
8	8102	784.947380492859	0.216627030448
8	8127	787.719136123554	0.300510143361
8	8134	788.102916480882	0.332450034901
8	8139	788.753578961589	0.730337682905
8	8143	789.137359318917	0.378416899269
8	8155	790.28741112588	0.38334921117
8	8160	790.671191483208	0.532783029783
8	8163	791.054971840536	0.535448170742
8	8168	791.438752197864	0.13885302875
8	8173	791.822532555192	0.353019291273
8	8183	793.89467903723	0.003824141009
8	8195	795.41720722737	0.157747026978
8	8198	795.800987584698	0.454179311228
8	8213	797.399886512405	0.300640261013
8	8218	797.783666869733	0.211970196786
8	8225	798.167447227061	0.199700904131
8	8228	798.551227584389	0.425849336536
8	8233	798.935007941717	0.261191402307
8	8238	799.318788299045	0.027543851696
8	8243	799.702568656373	0.358260670069
8	8250	800.086349013701	0.34057252806
8	8255	800.470129371029	0.589120555933
8	8258	800.853909728357	0.585206166302
8	8265	801.237690085685	0.229530986695
8	8272	801.621470443013	0.482278099182
8	8277	802.005250800341	0.58158538197
8	8284	802.389031157669	0.914409868692
8	8287	802.772811514997	0.98610478519
8	8292	803.156591872325	0.943572317776
8	8295	803.540372229653	1.160737255969
8	8298	803.924152586981	1.1311773866
8	8308	804.828068591166	0.27084277277
8	8315	805.211848948494	0.174466102332
8	8324	805.595629305822	0.489596100848
8	8331	805.97940966315	0.615195575041
8	8338	806.363190020478	0.930847381082
8	8345	806.746970377806	1.181959539473
8	8350	807.130750735134	1.184420598089
8	8355	807.514531092462	1.548300155893
8	8362	807.89831144979	1.609454051271
8	8367	808.282091807118	1.974619806676
8	8369	808.282091807118	1.872860371116
8	8370	808.282091807118	1.81763057137
8	8371	808.282091807118	1.328455512364
8	8375	808.665872164446	1.195951127266
8	8382	809.049652521774	1.330407359599
8	8385	809.433432879102	1.711754698235
8	8388	809.81721323643	1.682561771944
8	8391	810.200993593758	1.642131711436
8	8402	810.584773951086	1.7307968133
8	8404	810.584773951086	1.551628940157
8	8408	811.235436431793	0.95329802516
8	8412	811.619216789121	1.333028226906
8	8415	812.002997146449	1.667118185129
8	8418	812.386777503777	1.911479593235
8	8420	812.386777503777	0.900250074874
8	8424	812.770557861105	0.236123464029
8	8431	813.154338218433	0.310542706793
8	8436	813.538118575761	0.399536845965
8	8441	813.921898933089	0.611409905864
8	8446	814.305679290417	0.689312173929
8	8449	814.689459647745	0.591426704992
8	8456	815.073240005073	0.230838012824
8	8461	815.457020362401	0.385232396887
8	8466	815.840800719729	0.711575199067
8	8471	816.224581077057	0.610446098211
8	8476	816.608361434385	0.742349147271
8	8483	816.992141791713	0.529378690767
8	8488	817.375922149041	0.591415287042
8	8491	817.759702506369	0.923871026296
8	8502	818.143482863697	1.032454059849
8	8505	818.527263221025	0.632773441789
8	8510	818.911043578353	1.003940278731
8	8513	819.294823935681	1.346313972479
8	8520	819.678604293009	1.658950012542
8	8523	820.062384650337	1.232349831276
8	8526	820.446165007665	1.075464140203
8	8529	820.829945364993	1.223882515087
8	8539	822.132743241945	0.123378466568
8	8549	823.548451880069	0.118859291721
8	8562	823.932232237397	0.288027387025
8	8569	824.316012594725	0.537016253281
8	8572	824.699792952053	0.888760890067
8	8575	825.083573309381	1.26204829033
8	8582	825.467353666709	1.622888521837
8	8591	825.851134024037	1.763988607754
8	8593	825.851134024037	1.580913238459
8	8595	826.234914381365	0.857668910334
8	8600	826.618694738693	1.189837105876
8	8605	827.002475096021	1.378892207694
8	8610	827.386255453349	1.69732871695
8	8615	827.770035810677	1.953322433876
8	8617	827.770035810677	1.424890000823
8	8621	828.153816168005	1.193329135392
8	8624	828.537596525333	1.428405619289
8	8629	828.921376882661	1.441838288778
8	8632	829.305157239989	1.266965955766
8	8639	829.688937597317	1.07930347214
8	8646	830.072717954645	0.555829937779
8	8649	830.456498311973	0.785635369715
8	8652	830.840278669301	1.089583302437
8	8655	831.224059026629	1.395076828589
8	8666	831.874721507336	0.629012206715
8	8668	832.258501864664	0.755879620743
8	8673	832.642282221992	0.812800429015
8	8678	833.02606257932	0.440090403664
8	8681	833.409842936648	0.560546191244
8	8700	834.924490283038	0.353026355162
8	8703	835.308270640366	0.514527007202
8	8706	835.692050997694	0.768244770719
8	8713	836.075831355022	0.33897717317
8	8718	836.45961171235	0.562253246366
8	8725	836.843392069678	0.403290740412
8	8730	837.227172427006	0.751423750925
8	8735	837.610952784334	1.019846434668
8	8738	837.994733141662	1.077892943388
8	8741	838.37851349899	0.845104169721
8	8746	838.762293856318	0.346131461531
8	8771	841.545242928747	0.094890699861
8	8776	841.929023286075	0.013363075401
8	8788	842.859770181376	0.34745009082
8	8795	843.243550538704	0.449587333298
8	8802	843.627330896032	0.50793896988
8	8805	844.01111125336	0.808965762657
8	8812	844.394891610688	0.994294906873
8	8815	844.778671968016	1.366885973768
8	8820	845.162452325344	0.885481638099
8	8825	845.546232682672	1.184896443248
8	8830	845.93001304	0.962853738619
8	8833	846.313793397328	1.032848711749
8	8836	846.697573754656	0.795368584768
8	8843	847.081354111984	0.178944194675
8	8854	847.465134469312	0.485659696111
8	8859	847.84891482664	0.734285261323
8	8864	848.232695183968	0.924008987469
8	8867	848.616475541296	1.253980483983
8	8870	849.000255898624	1.582726183929
8	8873	849.384036255952	1.841951742606
8	8875	849.384036255952	1.432346824503
8	8894	853.450201725823	0.120816117282
8	8904	854.810888385261	0.176696891737
8	8920	856.023583044505	0.623839982247
8	8922	856.407363401833	0.736848464501
8	8925	856.791143759161	1.066600891354
8	8947	858.696709280467	0.309365136565
8	8952	859.080489637795	0.384475920437
8	8963	859.464269995123	0.399887338747
8	8968	859.848050352451	0.619834290098
8	8973	860.231830709779	0.943977556185
8	8978	860.615611067107	1.254372463301
8	8983	860.999391424435	1.579873402087
8	8986	861.383171781763	1.661975640644
8	8991	861.766952139091	1.860851397446
8	8993	861.766952139091	1.380033322719
8	8995	862.150732496419	1.467181409896
8	8998	862.534512853747	0.873953350135
8	9013	864.541377685353	0.227053140872
8	9018	864.925158042681	0.365508166445
8	9038	867.604002153836	0.260107785321
8	9053	869.297151576558	0.094203905425
8	9068	871.550691083044	0.078840912472
8	9073	871.934471440372	0.002689916964
8	9078	872.3182517977	0.183237305388
8	9085	872.702032155028	0.327652914608
8	9088	873.085812512356	0.458482196555
8	9093	873.469592869684	0.262629349977
8	9113	875.934155405231	0.373225946066
8	9125	877.202971836493	0.096573126355
8	9128	877.586752193821	0.406724496925
8	9135	877.970532551149	0.344488377124
8	9138	878.354312908477	0.49332587764
8	9148	879.958122022318	0.310245892914
8	9176	885.32500124826	0.2620967814
8	9181	885.708781605588	0.522234079843
8	9184	886.092561962916	0.43554580607
8	9201	888.578910976531	0.291782687515
8	9206	888.962691333859	0.597915948011
8	9211	889.346471691187	0.390920063494
8	9216	889.730252048515	0.385432865402
8	9221	890.114032405843	0.697381724142
8	9224	890.497812763171	0.500281315481
8	9234	891.790935637527	0.323267188196
8	9239	892.174715994855	0.229526023137
8	9244	892.558496352183	0.208500190249
8	9253	892.942276709511	0.363544587092
8	9256	893.326057066839	0.67387120777
8	9259	893.709837424167	1.026343600352
8	9279	896.676393711005	0.205191242348
8	9289	897.655523115432	0.201974753225
8	9296	898.03930347276	0.370260839256
8	9301	898.423083830088	0.708434535289
8	9306	898.806864187416	0.508099415633
8	9309	899.190644544744	0.416749076985
8	9314	899.574424902072	0.171214351053
8	9319	899.9582052594	0.202673912435
8	9333	900.843365428755	0.26133621581
8	9340	901.227145786083	0.604318169849
8	9347	901.610926143411	0.938668471452
8	9354	901.994706500739	0.902971098455
8	9361	902.378486858067	1.282913113379
8	9366	902.762267215395	1.515944116313
8	9371	903.146047572723	1.703510481635
8	9376	903.529827930051	1.91455616766
8	9378	903.529827930051	1.830024970298
8	9379	903.529827930051	1.265813208352
8	9385	903.913608287379	1.625120875771
8	9392	904.297388644707	1.783524750345
8	9394	904.297388644707	1.328556782553
8	9396	904.681169002035	1.367470703833
8	9401	905.064949359363	1.496714580566
8	9404	905.448729716691	1.842277721082
8	9406	905.448729716691	1.423852403797
8	9410	905.832510074019	1.68622112384
8	9413	906.216290431347	1.267461457359
8	9418	906.600070788675	0.861523811033
8	9421	906.983851146003	0.533934878476
8	9428	907.367631503331	0.190928009251
8	9435	908.018293984038	0.673285095192
8	9437	908.402074341366	0.742256582145
8	9462	911.507488567766	0.167051953934
8	9482	914.341715874533	0.222870031245
8	9489	914.725496231861	0.365334323508
8	9494	915.109276589189	0.4682926433
8	9501	915.493056946517	0.5311972062
8	9504	915.876837303845	0.534175737236
8	9507	916.260617661173	0.799184622803
8	9517	917.042211141471	0.20459525027
8	9522	917.425991498799	0.363593838693
8	9527	917.809771856127	0.305848332244
8	9532	918.193552213455	0.363309388224
8	9542	919.097887134541	0.356339191252
8	9552	920.672986058494	0.256989497848
8	9557	921.056766415822	0.244220904171
8	9567	921.857929435147	0.056815351216
8	9572	922.241709792475	0.346689072284
8	9577	922.625490149803	0.337498273507
8	9582	923.009270507131	0.192408031778
8	9597	925.617873208031	0.199079833111
8	9614	928.494505338442	0.260335408485
8	9617	928.87828569577	0.546682416753
8	9622	929.262066053098	0.357440269634
8	9635	929.645846410426	0.34351016755
8	9638	930.029626767754	0.70787062586
8	9641	930.413407125082	1.015876074764
8	9646	930.79718748241	1.281391094902
8	9649	931.180967839738	1.570369769431
8	9658	931.564748197066	1.005014367899
8	9665	931.948528554394	0.589931930817
8	9668	932.332308911722	0.960244446654
8	9671	932.71608926905	1.179084383482
8	9676	933.099869626378	1.402159912392
8	9681	933.483649983706	1.719868773029
8	9686	934.134312464413	1.123374038863
8	9690	934.518092821741	1.094534491152
8	9693	934.901873179069	0.681441986401
8	9698	935.285653536397	0.224269071553
8	9705	935.669433893725	0.344437298838
8	9712	936.053214251053	0.517011708509
8	9717	936.436994608381	0.741670304393
8	9724	936.820774965709	1.056934996629
8	9727	937.204555323037	0.926696654333
8	9730	937.588335680365	1.104252097743
8	9733	937.972116037693	1.482853653169
8	9743	939.258542985	0.02296994298
8	9748	939.642323342328	0.106921951653
8	9753	940.026103699656	0.267761149948
8	9758	940.409884056984	0.029177843613
8	9763	940.793664414312	0.372078027587
8	9768	941.17744477164	0.272315946067
8	9775	941.561225128968	0.297560485876
8	9782	941.945005486296	0.584970560065
8	9787	942.328785843624	0.473979775858
8	9790	942.712566200952	0.826587647102
8	9793	943.09634655828	1.042144879018
8	9808	944.930340517014	0.345471661263
8	9823	946.319700572118	0.046433796792
8	9843	951.334939607444	0.190549045405
8	9848	951.718719964772	0.261975779978
8	9863	954.322010519535	0.205274557858
8	9873	955.976622453205	0.27121667489
8	9883	957.189587333243	0.178479946851
8	9888	957.573367690571	0.182153503497
8	9898	960.891927435319	0.259002724087
8	9923	965.662693832567	0.25796902861
8	9935	967.425997302564	0.391171218344
8	9939	967.809777659892	0.29517776538
8	9944	968.19355801722	0.063636504507
8	9949	968.577338374548	0.289907632932
8	9954	968.961118731876	0.322980995076
8	9961	969.344899089204	0.311072247722
8	9970	969.728679446532	0.54406437756
8	9975	970.11245980386	0.619626398275
8	9978	970.496240161188	0.9212409992
8	9981	970.880020518516	1.280519563321
8	9988	971.263800875844	1.219799732833
8	9991	971.647581233172	0.561712476684
8	9994	972.0313615905	0.772957715466
8	9999	972.415141947828	0.201572148672
8	10004	972.798922305156	0.261629671226
8	10016	973.887426263264	0.371734309017
8	10023	974.271206620592	0.701018827189
8	10026	974.65498697792	0.489002580403
8	10029	975.038767335248	0.828220664125
8	10034	975.422547692576	0.104397556492
8	10039	975.806328049904	0.038412278561
8	10044	976.190108407232	0.001315492781
8	10059	977.732977054738	0.297586350839
8	10064	978.116757412066	0.034134837429
8	10076	980.22791908523	0.363312200739
8	10079	980.611699442558	0.628442737274
8	10084	980.995479799886	0.134982435532
8	10103	982.492040921116	0.365888661763
8	10106	982.875821278444	0.636221009186
8	10111	983.259601635772	1.006953498708
8	10118	983.6433819931	0.490711028678
8	10121	984.027162350428	0.725925498948
8	10124	984.410942707756	1.022945871633
8	10139	989.630207697076	0.07578875271
8	10149	990.64978330672	0.187125780356
8	10159	992.883037414797	0.297978071737
8	10169	993.768530982437	0.015421215944
8	10176	994.152311339765	0.267099175923
8	10183	994.536091697093	0.639300341579
8	10190	995.1867541778	0.880370597254
8	10192	995.570534535128	1.153690209831
8	10195	995.954314892456	0.981445420641
8	10207	997.06354623585	0.181913735388
8	10214	997.447326593178	0.456140896981
8	10219	997.831106950506	0.695377626046
8	10224	998.214887307834	0.969135371305
8	10227	998.598667665162	1.080401519417
8	10232	998.98244802249	1.147598942872
8	10235	999.366228379818	0.4993693846
8	10240	999.750008737146	0.337281198028

