version 2
run General-164-20240201-11:04:21-40057
attr configname General
attr datetime 20240201-11:04:21
attr experiment General
attr inifile main.ini
attr iterationvars "$0=1.4, $1=1.7, $2=70"
attr iterationvarsf 1.4,1.7,70-
attr measurement "$0=1.4, $1=1.7, $2=70"
attr network Rete
attr processid 40057
attr repetition 4
attr replication #4
attr resultdir results
attr runnumber 164
attr seedset 164
param Rete.lambda 1.4
param Rete.a 0.3s
param Rete.b 1.7s
param Rete.c 0.1s
param Rete.d 0.3s
param Rete.mu 3.0
param Rete.source2.interArrivalTime exponential(1s/lambda)
param Rete.source2.jobServiceTime exponential(1s/mu)
param Rete.source2.deadline uniform(a,b)
param Rete.server2.j 70
param Rete.server2.V uniform(c,d)

vector 0 Rete.passiveQueue queueLength:vector ETV
attr interpolationmode sample-hold
attr title "queue length, vector"
vector 1 Rete.sink lifeTime:vector ETV
attr interpolationmode none
attr title "lifetime of arrived jobs, vector"
attr unit s
vector 2 Rete.sink totalQueueingTime:vector ETV
attr interpolationmode none
attr title "the total time spent in queues by arrived jobs, vector"
attr unit s
vector 3 Rete.sink queuesVisited:vector ETV
attr interpolationmode none
attr title "the total number of queues visited by arrived jobs, vector"
vector 4 Rete.sink totalServiceTime:vector ETV
attr interpolationmode none
attr title "the total time spent  by arrived jobs, vector"
attr unit s
vector 5 Rete.sink totalDelayTime:vector ETV
attr interpolationmode none
attr title "the total time spent in delay nodes by arrived jobs, vector"
attr unit s
vector 6 Rete.sink delaysVisited:vector ETV
attr interpolationmode none
attr title "the total number of delays visited by arrived jobs, vector"
vector 7 Rete.sink generation:vector ETV
attr interpolationmode none
attr title "the generation of the arrived jobs, vector"
vector 8 Rete.passiveQueue queueingTime:vector ETV
attr interpolationmode none
attr title "queueing time at dequeue, vector"
attr unit s
0	0	0	0
0	45	6.781367567245	1
0	46	6.844696119424	0
0	60	9.571231733865	1
0	61	9.59674902257	0
0	75	10.930659992998	1
0	76	10.931477648343	0
0	105	13.419360525587	1
0	106	13.434791955216	0
0	115	15.685851087376	1
0	116	15.778864083703	0
0	160	24.475516247578	1
0	161	24.538288239967	0
0	200	28.900655809403	1
0	201	29.002901083423	0
0	230	33.987751590728	1
0	231	34.031970083939	0
0	275	41.129680393854	1
0	276	41.137664262487	0
0	300	43.916020066525	1
0	301	43.958571333675	0
0	305	44.061907698338	1
0	306	44.080669946282	0
0	310	44.188582304399	1
0	311	44.202768558889	0
0	356	48.602671746502	1
0	357	48.604456631489	0
0	361	48.677282232924	1
0	362	48.726555244096	0
0	381	51.603955282743	1
0	382	51.636534958861	0
0	396	53.215806914964	1
0	397	53.290831467993	0
0	406	54.201593353787	1
0	407	54.236294087426	0
0	461	60.937588141245	1
0	462	61.033237853644	0
0	481	65.117341890611	1
0	482	65.160289100427	0
0	496	67.676350040604	1
0	497	67.687512495547	0
0	531	70.97246512562	1
0	532	70.975498796658	0
0	546	72.89485591311	1
0	547	72.916304065077	0
0	551	73.018857594366	1
0	552	73.038402677684	0
0	586	78.780520762963	1
0	587	78.88119251287	0
0	601	81.238141382949	1
0	602	81.317164132679	0
0	762	107.406680775634	1
0	763	107.456380134198	0
0	767	107.569956428576	1
0	768	107.578478746805	0
0	772	107.599489940412	1
0	773	107.700577359412	0
0	782	108.192098172612	1
0	783	108.234737870698	0
0	802	110.348104293861	1
0	804	110.349217820432	2
0	805	110.457250834195	1
0	809	110.510622644202	2
0	810	110.579349446802	1
0	813	110.701448059409	0
0	817	110.80886806782	1
0	818	110.823546672016	0
0	822	110.910149882438	1
0	823	110.945645284623	0
0	827	110.957520240706	1
0	828	111.06774389723	0
0	832	111.165411035261	1
0	833	111.189842509837	0
0	897	122.535791384807	1
0	899	122.537724869984	2
0	900	122.578337027365	1
0	903	122.700435639972	0
0	907	122.738020961373	1
0	908	122.822534252579	0
0	932	126.556885810852	1
0	934	126.600070565299	2
0	935	126.651360897756	1
0	938	126.773459510363	0
0	1002	135.7905840021	1
0	1003	135.840135607997	0
0	1012	136.207125010937	1
0	1013	136.241406703511	0
0	1052	142.522340190933	1
0	1056	142.60635231295	2
0	1057	142.716335501839	1
0	1059	142.838434114446	0
0	1068	143.20447832217	1
0	1069	143.250433608022	0
0	1073	143.366566006999	1
0	1074	143.372532220629	0
0	1168	164.452286295847	1
0	1170	164.482843251581	2
0	1171	164.510105683256	1
0	1174	164.632204295863	0
0	1203	169.782051487389	1
0	1204	169.783848419687	0
0	1208	169.870962620931	1
0	1209	169.905947032294	0
0	1213	170.00180413079	1
0	1214	170.028045644901	0
0	1313	186.258443810847	1
0	1314	186.353783312725	0
0	1343	191.565338480469	1
0	1344	191.583935723171	0
0	1373	198.884281789805	1
0	1374	198.894473883392	0
0	1403	206.104856978636	1
0	1405	206.113376741129	2
0	1408	206.265744436498	1
0	1410	206.387843049105	0
0	1429	209.929602170446	1
0	1430	209.985615225797	0
0	1519	226.029023627339	1
0	1520	226.095650750105	0
0	1534	227.602192692071	1
0	1535	227.700110366182	0
0	1599	242.0495296561	1
0	1600	242.074269435937	0
0	1634	246.460414485691	1
0	1635	246.495008138729	0
0	1664	250.42607591313	1
0	1665	250.488115272314	0
0	1689	254.544353942993	1
0	1690	254.625640663858	0
0	1729	259.995784777	1
0	1730	260.110307154168	0
0	1760	265.891235283896	1
0	1761	265.936163950095	0
0	1765	266.053482554198	1
0	1766	266.058262562702	0
0	1845	280.90061011919	1
0	1846	280.950251396752	0
0	1860	283.198627980635	1
0	1861	283.201611476743	0
0	1930	292.205296842655	1
0	1931	292.325445946926	0
0	1985	302.050678963594	1
0	1986	302.15492912413	0
0	2000	304.130203102999	1
0	2002	304.166188194015	2
0	2003	304.202532048932	1
0	2006	304.324630661539	0
0	2010	304.357470579982	1
0	2011	304.446729274146	0
0	2035	305.891404015408	1
0	2036	305.982345952372	0
0	2050	306.416006288917	1
0	2051	306.515966680403	0
0	2065	307.402808685984	1
0	2066	307.454157098506	0
0	2111	313.558490700076	1
0	2112	313.656396854694	0
0	2116	313.757247230021	1
0	2117	313.778495467301	0
0	2126	315.085579413755	1
0	2128	315.143238280588	2
0	2129	315.152434113039	1
0	2132	315.274532725646	0
0	2136	315.307600516559	1
0	2137	315.396631338253	0
0	2156	317.31576302581	1
0	2157	317.343470959082	0
0	2246	331.523557633894	1
0	2247	331.551234234769	0
0	2266	333.880003228013	1
0	2267	333.947504342044	0
0	2351	348.428081937847	1
0	2352	348.528406340206	0
0	2386	354.093363586117	1
0	2387	354.131497230118	0
0	2396	354.441181771598	1
0	2397	354.494047707249	0
0	2401	354.598102520002	1
0	2402	354.616146319856	0
0	2497	370.78950226453	1
0	2498	370.905478231887	0
0	2517	372.200920522529	1
0	2518	372.296030266423	0
0	2542	375.083744364618	1
0	2543	375.154626096288	0
0	2547	375.20981306267	1
0	2548	375.276724708895	0
0	2567	378.687189474227	1
0	2568	378.733907329532	0
0	2597	380.762941050156	1
0	2598	380.875962205045	0
0	2622	382.946586453856	1
0	2623	383.033960663748	0
0	2692	392.735568321884	1
0	2693	392.822576949436	0
0	2717	395.840626672625	1
0	2718	395.900071815348	0
0	2757	401.790193848508	1
0	2758	401.847597843415	0
0	2762	401.933294501283	1
0	2763	401.969696456022	0
0	2843	411.046787674467	1
0	2844	411.137368065366	0
0	2863	413.018156654972	1
0	2864	413.138261350275	0
0	2888	416.808130671621	1
0	2889	416.847576414741	0
0	2908	419.09320648355	1
0	2909	419.155176613751	0
0	3098	446.440123205139	1
0	3099	446.547110054828	0
0	3153	455.428321666628	1
0	3154	455.506072551548	0
0	3164	456.122800215952	1
0	3165	456.216666909453	0
0	3174	457.429396367978	1
0	3175	457.547230077954	0
0	3199	462.449355678798	1
0	3200	462.48793568898	0
0	3259	471.768109065452	1
0	3260	471.838282740192	0
0	3294	479.092675785503	1
0	3296	479.121779847462	2
0	3297	479.204780184837	1
0	3300	479.326878797444	0
0	3314	480.639261600404	1
0	3315	480.664204720179	0
0	3324	480.949383392097	1
0	3325	481.02456111833	0
0	3349	484.931969399132	1
0	3350	484.97819744551	0
0	3379	490.151190445992	1
0	3380	490.214184443787	0
0	3429	496.39559936901	1
0	3430	496.503745093624	0
0	3439	497.922118405553	1
0	3440	498.034860520137	0
0	3504	509.951530792337	1
0	3505	509.991515940422	0
0	3515	512.23484986915	1
0	3516	512.330827917821	0
0	3560	518.476736781979	1
0	3561	518.588808218068	0
0	3575	520.702572280432	1
0	3576	520.818898399028	0
0	3625	526.021179820989	1
0	3627	526.114660421882	2
0	3628	526.129987797046	1
0	3631	526.252086409653	0
0	3655	529.886269305553	1
0	3656	529.940176267865	0
0	3670	531.719363889637	1
0	3671	531.731166231342	0
0	3680	532.488976906205	1
0	3681	532.55092386861	0
0	3725	540.968314548385	1
0	3726	541.00338387067	0
0	3765	545.343630782218	1
0	3766	545.423712398466	0
0	3775	547.476727877192	1
0	3776	547.49616372415	0
0	3855	557.616979541971	1
0	3856	557.723097686001	0
0	3866	558.485847218252	1
0	3867	558.496591841633	0
0	3891	561.747197192086	1
0	3892	561.824146160148	0
0	3901	562.105784417708	1
0	3902	562.16396071247	0
0	3911	563.844486211221	1
0	3912	563.894461042807	0
0	3946	568.734244927136	1
0	3947	568.754643585369	0
0	3961	570.278397681794	1
0	3962	570.297336309329	0
0	3986	573.181065250453	1
0	3987	573.262233606508	0
0	3991	573.29635527953	1
0	3992	573.384332219115	0
0	3996	573.469867746238	1
0	3997	573.506430831722	0
0	4026	578.512406529248	1
0	4027	578.56188101353	0
0	4036	580.31745364939	1
0	4037	580.418220356044	0
0	4046	580.73268555521	1
0	4047	580.811162674243	0
0	4066	582.981364166101	1
0	4067	583.007535256074	0
0	4071	583.031348218282	1
0	4072	583.129633868681	0
0	4091	586.879640754967	1
0	4092	586.907261806003	0
0	4096	587.026657106347	1
0	4097	587.02936041861	0
0	4121	591.749132413837	1
0	4122	591.811184474517	0
0	4141	593.716026784476	1
0	4142	593.7404082398	0
0	4151	594.358988464961	1
0	4153	594.377533520665	2
0	4154	594.416429414048	1
0	4157	594.538528026655	0
0	4196	604.306650116605	1
0	4197	604.375548055149	0
0	4211	605.638887084675	1
0	4214	605.860651504217	0
0	4222	606.226841354797	1
0	4223	606.320860970297	0
0	4237	607.422748552394	1
0	4238	607.453143457189	0
0	4252	609.112106236937	1
0	4253	609.203923543567	0
0	4257	609.286890527111	1
0	4258	609.326022156174	0
0	4272	610.884835945762	1
0	4274	610.964793162371	2
0	4275	610.970473046452	1
0	4278	611.092571659059	0
0	4342	623.851127148177	1
0	4343	623.875597244678	0
0	4352	626.840122208017	1
0	4353	626.852332034698	0
0	4367	628.098455230437	1
0	4369	628.119924315479	2
0	4370	628.152013293214	1
0	4373	628.274111905821	0
0	4387	629.434654217437	1
0	4388	629.538820926162	0
0	4412	633.368094703637	1
0	4413	633.399496516722	0
0	4437	636.791586458352	1
0	4438	636.878914809418	0
0	4462	639.132581846281	1
0	4463	639.174201962299	0
0	4487	640.762358285904	1
0	4489	640.778523075259	2
0	4490	640.816297249576	1
0	4493	640.938395862183	0
0	4497	641.012396787172	1
0	4498	641.06049447479	0
0	4562	649.850305028605	1
0	4565	649.993248732006	0
0	4608	656.34953369707	1
0	4609	656.364377452716	0
0	4678	675.209494335141	1
0	4679	675.224347526069	0
0	4713	681.054819307987	1
0	4714	681.122509662797	0
0	4763	687.141146530036	1
0	4764	687.217628453958	0
0	4773	688.867422746077	1
0	4774	688.891547914215	0
0	4838	700.141047414842	1
0	4839	700.160312569794	0
0	4858	703.899510819469	1
0	4859	703.988448800041	0
0	4868	704.963373093249	1
0	4869	705.07062635432	0
0	4873	705.125501547	1
0	4874	705.192724966927	0
0	4883	705.55922654094	1
0	4885	705.567452813436	2
0	4887	705.608032897709	3
0	4888	705.648364698709	2
0	4892	705.748595263308	3
0	4893	705.770463311316	2
0	4896	705.892561923923	1
0	4899	706.01466053653	0
0	4913	707.245565230041	1
0	4917	707.275396282085	2
0	4918	707.37489956864	1
0	4920	707.496998181247	0
0	4944	710.361888766653	1
0	4945	710.399186795268	0
0	4974	713.335284962859	1
0	4975	713.41040906283	0
0	4984	713.642607324372	1
0	4985	713.72934573768	0
0	4989	713.758750997998	1
0	4991	713.815560077148	2
0	4992	713.851444350287	1
0	4995	713.973542962894	0
0	5009	714.846622026732	1
0	5010	714.955968524528	0
0	5034	718.23807551528	1
0	5035	718.29043565906	0
0	5059	721.185388233945	1
0	5060	721.222692572835	0
0	5064	721.28789738841	1
0	5065	721.344791185442	0
0	5069	721.43698675197	1
0	5070	721.466889798049	0
0	5089	723.073006280287	1
0	5090	723.078410079599	0
0	5124	730.203839837946	1
0	5125	730.227495710894	0
0	5139	730.546754024568	1
0	5140	730.640636293003	0
0	5169	735.992528731099	1
0	5170	736.050494199186	0
0	5199	738.782050909397	1
0	5201	738.796316567674	2
0	5202	738.7964793811	1
0	5205	738.918577993707	0
0	5270	753.935855760559	1
0	5271	754.009755169521	0
0	5350	765.967278022009	1
0	5351	766.035168081222	0
0	5355	766.098675247282	1
0	5356	766.157266693829	0
0	5370	767.041666494869	1
0	5371	767.078048385638	0
0	5390	768.43732196021	1
0	5391	768.524383337047	0
0	5425	772.2383606175	1
0	5426	772.331211447343	0
0	5490	781.782368057402	1
0	5491	781.903650805883	0
0	5495	781.966582374899	1
0	5496	782.02574941849	0
0	5500	782.044518501086	1
0	5501	782.147848031097	0
0	5535	786.817430348668	1
0	5536	786.930650452861	0
0	5590	792.85717121939	1
0	5591	792.959203545823	0
0	5615	796.021591755234	1
0	5618	796.229046959455	0
0	5646	800.078846444008	1
0	5647	800.167997763049	0
0	5701	807.966015591545	1
0	5702	807.989882090213	0
0	5756	813.155368330695	1
0	5757	813.160630340187	0
0	5761	813.182624029002	1
0	5762	813.282728952794	0
0	5876	831.671091875043	1
0	5877	831.787103306968	0
0	5886	833.031862905902	1
0	5888	833.035961786394	2
0	5889	833.098052073253	1
0	5892	833.22015068586	0
0	5941	842.039964765748	1
0	5943	842.052356626346	2
0	5944	842.137551840367	1
0	5947	842.259650452974	0
0	5977	847.090497952235	1
0	5978	847.115319411657	0
0	6037	853.04080266912	1
0	6038	853.114650027947	0
0	6047	854.02616590952	1
0	6048	854.091130558448	0
0	6062	856.656827616244	1
0	6063	856.743039060108	0
0	6082	859.431807635015	1
0	6083	859.48233910608	0
0	6097	859.913651800327	1
0	6098	860.001530196426	0
0	6102	860.050250252792	1
0	6103	860.123628809033	0
0	6142	866.788409770849	1
0	6143	866.904488078834	0
0	6162	871.541648572203	1
0	6163	871.621132104815	0
0	6222	879.719257255693	1
0	6223	879.775602780751	0
0	6277	888.278547405739	1
0	6278	888.395457092921	0
0	6282	888.435896533438	1
0	6284	888.513538789344	2
0	6285	888.517555705528	1
0	6288	888.639654318135	0
0	6297	888.882209510564	1
0	6298	888.905897615614	0
0	6353	900.141902024092	1
0	6354	900.188237397209	0
0	6383	906.60981391039	1
0	6384	906.728152392259	0
0	6403	911.441695863041	1
0	6404	911.527641408466	0
0	6438	915.125448350979	1
0	6439	915.151029146354	0
0	6473	918.952181924395	1
0	6474	919.05206843974	0
0	6498	923.223879659918	1
0	6500	923.272527669949	2
0	6501	923.345437947018	1
0	6504	923.467536559625	0
0	6523	926.233272739387	1
0	6524	926.339582475732	0
0	6533	928.503623312865	1
0	6534	928.511554434333	0
0	6588	936.473269554724	1
0	6589	936.477573938864	0
0	6663	947.824260000949	1
0	6664	947.932219006938	0
0	6714	954.319745986429	1
0	6715	954.420815931755	0
0	6819	972.293289861451	1
0	6820	972.312633575039	0
0	6844	975.876684669956	1
0	6845	975.902742862649	0
0	6869	980.131119401043	1
0	6870	980.180807958468	0
0	6879	980.811001771403	1
0	6880	980.932023650491	0
0	6894	983.082940643009	1
0	6895	983.110901118456	0
1	5	0.437515545344	0.122098612607
1	10	0.670429781206	0.122098612607
1	15	2.673920022411	0.122098612607
1	20	3.920287848862	0.122098612607
1	25	4.866759708941	0.122098612607
1	30	5.34222970935	0.122098612607
1	35	5.634532672938	0.122098612607
1	40	6.523125811938	0.122098612607
1	47	6.844696119424	0.122098612607
1	50	6.966794732031	0.185427164786
1	55	8.514026742076	0.122098612607
1	62	9.59674902257	0.122098612607
1	65	9.718847635177	0.147615901312
1	70	10.261375293443	0.122098612607
1	77	10.931477648343	0.122098612607
1	80	11.05357626095	0.122916267952
1	85	11.361655854592	0.122098612607
1	90	12.026590665308	0.122098612607
1	95	12.612654785892	0.122098612607
1	100	12.875881014363	0.122098612607
1	107	13.434791955216	0.122098612607
1	110	13.556890567823	0.137530042236
1	117	15.778864083703	0.122098612607
1	120	15.90096269631	0.215111608934
1	125	16.76147181794	0.122098612607
1	130	18.909305664272	0.122098612607
1	135	19.07531829907	0.122098612607
1	140	19.476697819693	0.122098612607
1	145	21.409829537234	0.122098612607
1	150	22.995182664197	0.122098612607
1	155	23.683936628051	0.122098612607
1	162	24.538288239967	0.122098612607
1	165	24.660386852574	0.184870604996
1	170	24.841298600712	0.122098612607
1	175	25.632185605383	0.122098612607
1	180	26.323807674318	0.122098612607
1	185	26.697282811299	0.122098612607
1	190	27.461178409311	0.122098612607
1	195	27.93186320603	0.122098612607
1	202	29.002901083423	0.122098612607
1	205	29.12499969603	0.224343886627
1	210	31.113222854653	0.122098612607
1	215	31.518549246872	0.122098612607
1	220	32.317992893077	0.122098612607
1	225	32.655356353113	0.122098612607
1	232	34.031970083939	0.122098612607
1	235	34.154068696546	0.166317105818
1	240	34.493782441211	0.122098612607
1	245	36.595849070405	0.122098612607
1	250	36.751348617612	0.122098612607
1	255	37.638174409065	0.122098612607
1	260	38.44334645208	0.122098612607
1	265	40.330520383717	0.122098612607
1	270	40.469295806485	0.122098612607
1	277	41.137664262487	0.122098612607
1	280	41.259762875094	0.13008248124
1	285	41.5268011866	0.122098612607
1	290	42.896913419423	0.122098612607
1	295	43.273310907981	0.122098612607
1	302	43.958571333675	0.122098612607
1	307	44.080669946282	0.164649879757
1	312	44.202768558889	0.140860860551
1	315	44.324867171496	0.136284867097
1	320	44.978328572033	0.122098612607
1	325	46.308250733777	0.122098612607
1	330	47.002228882223	0.122098612607
1	335	47.194876581144	0.122098612607
1	340	47.381944207396	0.122098612607
1	345	48.040628504182	0.122098612607
1	350	48.231672971439	0.122098612607
1	358	48.604456631489	0.122098612607
1	363	48.726555244096	0.123883497594
1	366	48.848653856703	0.171371623779
1	371	50.461856088708	0.122098612607
1	376	50.725539952937	0.122098612607
1	383	51.636534958861	0.122098612607
1	386	51.758633571468	0.154678288725
1	391	52.256812819418	0.122098612607
1	398	53.290831467993	0.122098612607
1	401	53.4129300806	0.197123165636
1	408	54.236294087426	0.122098612607
1	411	54.358392700033	0.156799346246
1	416	55.802846656477	0.122098612607
1	421	56.18418482495	0.122098612607
1	426	56.606922793552	0.122098612607
1	431	57.691543171464	0.122098612607
1	436	57.828600251212	0.122098612607
1	441	58.263884861405	0.122098612607
1	446	59.221182097502	0.122098612607
1	451	59.525773405904	0.122098612607
1	456	60.416668539703	0.122098612607
1	463	61.033237853644	0.122098612607
1	466	61.155336466251	0.217748325006
1	471	62.955227337848	0.122098612607
1	476	63.991397135672	0.122098612607
1	483	65.160289100427	0.122098612607
1	486	65.282387713034	0.165045822423
1	491	66.035179650414	0.122098612607
1	498	67.687512495547	0.122098612607
1	501	67.809611108154	0.13326106755
1	506	67.991760148438	0.122098612607
1	511	68.511643081355	0.122098612607
1	516	69.192232384084	0.122098612607
1	521	69.88244413459	0.122098612607
1	526	70.490525845345	0.122098612607
1	533	70.975498796658	0.122098612607
1	536	71.097597409265	0.125132283645
1	541	72.592101938877	0.122098612607
1	548	72.916304065077	0.122098612607
1	553	73.038402677684	0.143546764574
1	556	73.160501290291	0.141643695925
1	561	74.383330376485	0.122098612607
1	566	75.528285968991	0.122098612607
1	571	75.773517529261	0.122098612607
1	576	75.978821785209	0.122098612607
1	581	76.757217382836	0.122098612607
1	588	78.88119251287	0.122098612607
1	591	79.003291125477	0.222770362514
1	596	79.836321073092	0.122098612607
1	603	81.317164132679	0.122098612607
1	606	81.439262745286	0.201121362337
1	611	81.818013946093	0.122098612607
1	616	81.976036998207	0.122098612607
1	621	82.196500376255	0.122098612607
1	626	82.328851938072	0.122098612607
1	631	83.682195792862	0.122098612607
1	636	83.8670259907	0.122098612607
1	641	84.447756146557	0.122098612607
1	646	86.628398226551	0.122098612607
1	651	86.908332104771	0.122098612607
1	656	87.467308043711	0.122098612607
1	661	87.799334410792	0.122098612607
1	666	88.327177631616	0.122098612607
1	671	88.589941177617	0.122098612607
1	676	88.871643241778	0.122098612607
1	681	90.57257302621	0.122098612607
1	686	91.173053692851	0.122098612607
1	691	92.540527063899	0.122098612607
1	696	93.764091693915	0.122098612607
1	701	93.984931984536	0.122098612607
1	707	94.413549532974	0.122098612607
1	712	94.578724204703	0.122098612607
1	717	95.841524361842	0.122098612607
1	722	96.224065988953	0.122098612607
1	727	97.031480084339	0.122098612607
1	732	97.738680854774	0.122098612607
1	737	99.92165191832	0.122098612607
1	742	101.042074357955	0.122098612607
1	747	101.761700824544	0.122098612607
1	752	104.425377011278	0.122098612607
1	757	105.762490592892	0.122098612607
1	764	107.456380134198	0.122098612607
1	769	107.578478746805	0.171797971171
1	774	107.700577359412	0.130620930836
1	777	107.822675972019	0.223186031607
1	784	108.234737870698	0.122098612607
1	787	108.356836483305	0.164738310693
1	792	108.71132799167	0.122098612607
1	797	110.005219335194	0.122098612607
1	806	110.457250834195	0.122098612607
1	811	110.579349446802	0.231245152941
1	814	110.701448059409	0.352230238977
1	819	110.823546672016	0.312924027814
1	824	110.945645284623	0.136777216803
1	829	111.06774389723	0.157594014792
1	834	111.189842509837	0.232322269131
1	837	111.311941122444	0.146530087183
1	842	111.664310995836	0.122098612607
1	847	112.229106413265	0.122098612607
1	852	113.587596407599	0.122098612607
1	857	114.899853416857	0.122098612607
1	862	116.491908729641	0.122098612607
1	867	117.513037476417	0.122098612607
1	872	118.74481049985	0.122098612607
1	877	120.14859569539	0.122098612607
1	882	120.631839325289	0.122098612607
1	887	121.874469561376	0.122098612607
1	892	122.006839221546	0.122098612607
1	901	122.578337027365	0.122098612607
1	904	122.700435639972	0.164644255165
1	909	122.822534252579	0.284809382595
1	912	122.944632865186	0.206611903813
1	917	123.266080048692	0.122098612607
1	922	124.366486669913	0.122098612607
1	927	124.9098771093	0.122098612607
1	936	126.651360897756	0.122098612607
1	939	126.773459510363	0.216573699511
1	942	126.89555812297	0.295487557671
1	947	127.936519763979	0.122098612607
1	952	128.969610111495	0.122098612607
1	957	129.584189653905	0.122098612607
1	962	129.92220219017	0.122098612607
1	967	130.794738471506	0.122098612607
1	972	131.888336331961	0.122098612607
1	977	132.513873227763	0.122098612607
1	982	132.730747140064	0.122098612607
1	987	133.741424736192	0.122098612607
1	992	134.271989963016	0.122098612607
1	997	135.509998652066	0.122098612607
1	1004	135.840135607997	0.122098612607
1	1007	135.962234220604	0.171650218504
1	1014	136.241406703511	0.122098612607
1	1017	136.363505316118	0.156380305181
1	1022	137.956648422462	0.122098612607
1	1027	138.19588553408	0.122098612607
1	1032	138.861092339308	0.122098612607
1	1037	139.731794273766	0.122098612607
1	1042	140.374684136164	0.122098612607
1	1047	141.8822353714	0.122098612607
1	1054	142.598843583782	0.122098612607
1	1060	142.838434114446	0.316093923513
1	1063	142.960532727053	0.354180414103
1	1070	143.250433608022	0.122098612607
1	1075	143.372532220629	0.168053898459
1	1078	143.494630833236	0.128064826237
1	1083	145.806563265225	0.122098612607
1	1088	148.002973975728	0.122098612607
1	1093	148.608943705535	0.122098612607
1	1098	149.057888185336	0.122098612607
1	1103	151.647532967632	0.122098612607
1	1108	152.329924071128	0.122098612607
1	1113	153.070220468364	0.122098612607
1	1118	154.921316610269	0.122098612607
1	1123	155.298902241683	0.122098612607
1	1128	155.615852902133	0.122098612607
1	1133	159.042690790671	0.122098612607
1	1138	160.068651715005	0.122098612607
1	1143	161.618606061128	0.122098612607
1	1148	162.242235661646	0.122098612607
1	1153	163.388978131816	0.122098612607
1	1158	163.782013640326	0.122098612607
1	1163	164.218589561842	0.122098612607
1	1172	164.510105683256	0.122098612607
1	1175	164.632204295863	0.179918000016
1	1178	164.75430290847	0.271459656889
1	1183	165.476602189896	0.122098612607
1	1188	166.356011005827	0.122098612607
1	1193	168.082131045856	0.122098612607
1	1198	169.615189310855	0.122098612607
1	1205	169.783848419687	0.122098612607
1	1210	169.905947032294	0.123895544905
1	1215	170.028045644901	0.15708302397
1	1218	170.150144257508	0.148340126718
1	1223	171.497403743203	0.122098612607
1	1228	172.457253665801	0.122098612607
1	1233	172.947791260013	0.122098612607
1	1238	173.54126463484	0.122098612607
1	1243	174.485522950182	0.122098612607
1	1248	175.127152065706	0.122098612607
1	1253	175.638810206187	0.122098612607
1	1258	176.234530653988	0.122098612607
1	1263	177.24983388225	0.122098612607
1	1268	178.66279725485	0.122098612607
1	1273	179.295409075585	0.122098612607
1	1278	181.12585645312	0.122098612607
1	1283	181.982515931786	0.122098612607
1	1288	182.36932962205	0.122098612607
1	1293	184.827890628298	0.122098612607
1	1298	185.625706721837	0.122098612607
1	1303	185.819678202712	0.122098612607
1	1308	186.106271466302	0.122098612607
1	1315	186.353783312725	0.122098612607
1	1318	186.475881925332	0.217438114485
1	1323	187.027315552873	0.122098612607
1	1328	188.014851704968	0.122098612607
1	1333	190.026398761513	0.122098612607
1	1338	191.153960108981	0.122098612607
1	1345	191.583935723171	0.122098612607
1	1348	191.706034335778	0.140695855309
1	1353	191.845985693037	0.122098612607
1	1358	192.10157233914	0.122098612607
1	1363	195.463640406656	0.122098612607
1	1368	197.682127128525	0.122098612607
1	1375	198.894473883392	0.122098612607
1	1378	199.016572495999	0.132290706194
1	1383	199.490469216876	0.122098612607
1	1388	202.263146142088	0.122098612607
1	1393	204.205414570292	0.122098612607
1	1398	205.322490579184	0.122098612607
1	1407	206.148252518441	0.122098612607
1	1411	206.387843049105	0.282986070469
1	1414	206.509941661712	0.396564920583
1	1419	207.025702104289	0.122098612607
1	1424	207.171228972763	0.122098612607
1	1431	209.985615225797	0.122098612607
1	1434	210.107713838404	0.178111667958
1	1439	211.558470449974	0.122098612607
1	1444	212.536847755095	0.122098612607
1	1449	212.851074484241	0.122098612607
1	1454	213.337738125653	0.122098612607
1	1459	213.553944443417	0.122098612607
1	1464	214.695123097634	0.122098612607
1	1469	216.57147869359	0.122098612607
1	1474	217.877802581462	0.122098612607
1	1479	219.830557549752	0.122098612607
1	1484	220.074248166274	0.122098612607
1	1489	220.400985456696	0.122098612607
1	1494	221.593553989739	0.122098612607
1	1499	221.835190939422	0.122098612607
1	1504	222.590054235257	0.122098612607
1	1509	223.327680262294	0.122098612607
1	1514	225.1256826603	0.122098612607
1	1521	226.095650750105	0.122098612607
1	1524	226.217749362712	0.188725735373
1	1529	226.437972614082	0.122098612607
1	1536	227.700110366182	0.122098612607
1	1539	227.822208978789	0.220016286718
1	1544	228.217608017182	0.122098612607
1	1549	229.08678476222	0.122098612607
1	1554	233.642231914383	0.122098612607
1	1559	233.958282398717	0.122098612607
1	1564	234.862731148962	0.122098612607
1	1569	235.799197660765	0.122098612607
1	1574	236.65391733991	0.122098612607
1	1579	238.471136124432	0.122098612607
1	1584	239.349296745536	0.122098612607
1	1589	240.186279388156	0.122098612607
1	1594	240.717804147391	0.122098612607
1	1601	242.074269435937	0.122098612607
1	1604	242.196368048544	0.146838392444
1	1609	242.631376337596	0.122098612607
1	1614	243.845297898521	0.122098612607
1	1619	244.131932287121	0.122098612607
1	1624	245.756824086738	0.122098612607
1	1629	246.11515524263	0.122098612607
1	1636	246.495008138729	0.122098612607
1	1639	246.617106751336	0.156692265645
1	1644	247.196091933584	0.122098612607
1	1649	248.554038523633	0.122098612607
1	1654	249.537590322519	0.122098612607
1	1659	249.990964008161	0.122098612607
1	1666	250.488115272314	0.122098612607
1	1669	250.610213884921	0.184137971791
1	1674	251.806573951224	0.122098612607
1	1679	253.058087797515	0.122098612607
1	1684	253.196163700493	0.122098612607
1	1691	254.625640663858	0.122098612607
1	1694	254.747739276465	0.203385333472
1	1699	255.390089474339	0.122098612607
1	1704	256.3481534901	0.122098612607
1	1709	256.478568796394	0.122098612607
1	1714	256.978596531022	0.122098612607
1	1719	257.147188438365	0.122098612607
1	1724	257.976279088512	0.122098612607
1	1731	260.110307154168	0.122098612607
1	1734	260.232405766775	0.236620989775
1	1739	261.336652374923	0.122098612607
1	1744	262.150957024591	0.122098612607
1	1749	264.386723677617	0.122098612607
1	1754	265.023989837833	0.122098612607
1	1762	265.936163950095	0.122098612607
1	1767	266.058262562702	0.167027278806
1	1770	266.180361175309	0.126878621111
1	1775	266.870410555075	0.122098612607
1	1780	267.232183192837	0.122098612607
1	1785	268.165388074083	0.122098612607
1	1790	268.37387171667	0.122098612607
1	1795	269.496755782425	0.122098612607
1	1800	271.098716213962	0.122098612607
1	1805	271.525223337984	0.122098612607
1	1810	272.258688333714	0.122098612607
1	1815	273.351072831559	0.122098612607
1	1820	274.05077206844	0.122098612607
1	1825	274.327655948384	0.122098612607
1	1830	277.565726405796	0.122098612607
1	1835	279.154629219498	0.122098612607
1	1840	280.013961424861	0.122098612607
1	1847	280.950251396752	0.122098612607
1	1850	281.072350009359	0.171739890169
1	1855	281.754204742826	0.122098612607
1	1862	283.201611476743	0.122098612607
1	1865	283.32371008935	0.125082108715
1	1870	283.980254421507	0.122098612607
1	1875	284.428961154855	0.122098612607
1	1880	285.549491381677	0.122098612607
1	1885	286.301173265584	0.122098612607
1	1890	286.649814142524	0.122098612607
1	1895	286.793706224203	0.122098612607
1	1900	288.328834980822	0.122098612607
1	1905	288.574560878871	0.122098612607
1	1910	288.706264507857	0.122098612607
1	1915	289.997106935669	0.122098612607
1	1920	290.859479734154	0.122098612607
1	1925	291.349206137564	0.122098612607
1	1932	292.325445946926	0.122098612607
1	1935	292.447544559533	0.242247716878
1	1940	294.417996158631	0.122098612607
1	1945	294.620208150005	0.122098612607
1	1950	295.032813161315	0.122098612607
1	1955	297.484744846317	0.122098612607
1	1960	298.038547615746	0.122098612607
1	1965	298.760147695136	0.122098612607
1	1970	299.455712016147	0.122098612607
1	1975	300.092293990886	0.122098612607
1	1980	300.393005273947	0.122098612607
1	1987	302.15492912413	0.122098612607
1	1990	302.277027736737	0.226348773143
1	1995	302.933114778729	0.122098612607
1	2004	304.202532048932	0.122098612607
1	2007	304.324630661539	0.19442755854
1	2012	304.446729274146	0.280541080131
1	2015	304.568827886753	0.211357306771
1	2020	304.792037675447	0.122098612607
1	2025	305.402208257922	0.122098612607
1	2030	305.557215476282	0.122098612607
1	2037	305.982345952372	0.122098612607
1	2040	306.104444564979	0.213040549571
1	2045	306.306572528685	0.122098612607
1	2052	306.515966680403	0.122098612607
1	2055	306.63806529301	0.222059004093
1	2060	306.803810969784	0.122098612607
1	2067	307.454157098506	0.122098612607
1	2070	307.576255711113	0.173447025129
1	2075	309.329295213218	0.122098612607
1	2080	309.926167433371	0.122098612607
1	2085	310.800748295469	0.122098612607
1	2090	311.769118699926	0.122098612607
1	2095	312.242994955521	0.122098612607
1	2100	312.870683892184	0.122098612607
1	2105	313.146419880276	0.122098612607
1	2113	313.656396854694	0.122098612607
1	2118	313.778495467301	0.220004767225
1	2121	313.900594079908	0.143346849887
1	2130	315.152434113039	0.122098612607
1	2133	315.274532725646	0.188953311891
1	2138	315.396631338253	0.253393057665
1	2141	315.51872995086	0.211129434301
1	2146	315.970013327529	0.122098612607
1	2151	316.60380965319	0.122098612607
1	2158	317.343470959082	0.122098612607
1	2161	317.465569571689	0.149806545879
1	2166	317.766602414599	0.122098612607
1	2171	318.097503853715	0.122098612607
1	2176	318.328013815328	0.122098612607
1	2181	319.066876628993	0.122098612607
1	2186	319.607594921189	0.122098612607
1	2191	320.084278847237	0.122098612607
1	2196	320.620803345062	0.122098612607
1	2201	321.250899764458	0.122098612607
1	2206	325.971008318555	0.122098612607
1	2211	326.257993980653	0.122098612607
1	2216	328.461807980196	0.122098612607
1	2221	329.638317867652	0.122098612607
1	2226	330.077766338964	0.122098612607
1	2231	330.47211958973	0.122098612607
1	2236	330.620074227649	0.122098612607
1	2241	331.389749349214	0.122098612607
1	2248	331.551234234769	0.122098612607
1	2251	331.673332847376	0.149775213482
1	2256	332.908883235127	0.122098612607
1	2261	333.647189224852	0.122098612607
1	2268	333.947504342044	0.122098612607
1	2271	334.069602954651	0.189599726638
1	2276	336.993545019136	0.122098612607
1	2281	337.795452337748	0.122098612607
1	2286	338.531722465382	0.122098612607
1	2291	340.102062147382	0.122098612607
1	2296	342.915218531558	0.122098612607
1	2301	343.352180536808	0.122098612607
1	2306	344.554139649811	0.122098612607
1	2311	344.711915637974	0.122098612607
1	2316	345.230308983967	0.122098612607
1	2321	345.51220891074	0.122098612607
1	2326	346.104271170332	0.122098612607
1	2331	346.678601768996	0.122098612607
1	2336	346.902534211163	0.122098612607
1	2341	348.071849888019	0.122098612607
1	2346	348.223505738373	0.122098612607
1	2353	348.528406340206	0.122098612607
1	2356	348.650504952813	0.222423014966
1	2361	350.119024872743	0.122098612607
1	2366	350.326837940103	0.122098612607
1	2371	350.719969101405	0.122098612607
1	2376	351.697060781386	0.122098612607
1	2381	353.18984226356	0.122098612607
1	2388	354.131497230118	0.122098612607
1	2391	354.253595842725	0.160232256608
1	2398	354.494047707249	0.122098612607
1	2403	354.616146319856	0.174964548258
1	2406	354.738244932463	0.140142412461
1	2411	355.500004885421	0.122098612607
1	2416	356.624293068588	0.122098612607
1	2421	356.98169424468	0.122098612607
1	2426	359.005701955291	0.122098612607
1	2431	360.880645401259	0.122098612607
1	2436	361.319884798756	0.122098612607
1	2441	362.675329537934	0.122098612607
1	2446	362.822095978794	0.122098612607
1	2451	363.060976377764	0.122098612607
1	2456	363.446053917783	0.122098612607
1	2462	364.155735011126	0.122098612607
1	2467	364.819592840132	0.122098612607
1	2472	366.768373321116	0.122098612607
1	2477	367.074262895242	0.122098612607
1	2482	367.728934342274	0.122098612607
1	2487	368.073472183972	0.122098612607
1	2492	370.435270782967	0.122098612607
1	2499	370.905478231887	0.122098612607
1	2502	371.027576844494	0.238074579964
1	2507	371.203805267946	0.122098612607
1	2512	371.340878997064	0.122098612607
1	2519	372.296030266423	0.122098612607
1	2522	372.41812887903	0.217208356501
1	2527	373.155785400224	0.122098612607
1	2532	373.300215306343	0.122098612607
1	2537	374.022056774079	0.122098612607
1	2544	375.154626096288	0.122098612607
1	2549	375.276724708895	0.192980344277
1	2552	375.398823321502	0.189010258832
1	2557	377.427730754441	0.122098612607
1	2562	377.751597751649	0.122098612607
1	2569	378.733907329532	0.122098612607
1	2572	378.856005942139	0.168816467912
1	2577	379.011041452084	0.122098612607
1	2582	379.246637050286	0.122098612607
1	2587	379.646480728909	0.122098612607
1	2592	379.789959850915	0.122098612607
1	2599	380.875962205045	0.122098612607
1	2602	380.998060817652	0.235119767496
1	2607	381.239147573182	0.122098612607
1	2612	381.550816483912	0.122098612607
1	2617	382.622942699723	0.122098612607
1	2624	383.033960663748	0.122098612607
1	2627	383.156059276355	0.209472822499
1	2632	383.555962446766	0.122098612607
1	2637	385.590596138286	0.122098612607
1	2642	386.000911805013	0.122098612607
1	2647	386.901188881825	0.122098612607
1	2652	387.390355064641	0.122098612607
1	2657	388.730595658993	0.122098612607
1	2662	389.784236667265	0.122098612607
1	2667	390.262499418216	0.122098612607
1	2672	391.157060442408	0.122098612607
1	2677	391.568526191351	0.122098612607
1	2682	391.961159993405	0.122098612607
1	2687	392.50666410347	0.122098612607
1	2694	392.822576949436	0.122098612607
1	2697	392.944675562043	0.209107240159
1	2702	393.076021345712	0.122098612607
1	2707	394.624694385385	0.122098612607
1	2712	394.758166010881	0.122098612607
1	2719	395.900071815348	0.122098612607
1	2722	396.022170427955	0.18154375533
1	2727	396.235227559456	0.122098612607
1	2732	396.789176742953	0.122098612607
1	2737	398.198514757601	0.122098612607
1	2742	399.2292852357	0.122098612607
1	2747	401.029542387514	0.122098612607
1	2752	401.450973177336	0.122098612607
1	2759	401.847597843415	0.122098612607
1	2764	401.969696456022	0.179502607514
1	2767	402.091795068629	0.158500567346
1	2772	402.419198326132	0.122098612607
1	2777	403.059110001781	0.122098612607
1	2782	403.430816528266	0.122098612607
1	2787	404.677891896711	0.122098612607
1	2792	405.642991131847	0.122098612607
1	2797	406.871961807758	0.122098612607
1	2802	407.326550771941	0.122098612607
1	2807	407.540481627314	0.122098612607
1	2813	408.062611966011	0.122098612607
1	2818	409.080406272314	0.122098612607
1	2823	409.957060689529	0.122098612607
1	2828	410.169484326015	0.122098612607
1	2833	410.749117736197	0.122098612607
1	2838	411.010712778529	0.122098612607
1	2845	411.137368065366	0.122098612607
1	2848	411.259466677973	0.212679003506
1	2853	411.961540672364	0.122098612607
1	2858	412.504207163668	0.122098612607
1	2865	413.138261350275	0.122098612607
1	2868	413.260359962882	0.24220330791
1	2873	413.851919678997	0.122098612607
1	2878	414.114606260018	0.122098612607
1	2883	416.251234119098	0.122098612607
1	2890	416.847576414741	0.122098612607
1	2893	416.969675027348	0.161544355727
1	2898	417.638960521953	0.122098612607
1	2903	417.988834575729	0.122098612607
1	2910	419.155176613751	0.122098612607
1	2913	419.277275226358	0.184068742808
1	2918	420.242909504241	0.122098612607
1	2923	421.216070156775	0.122098612607
1	2928	422.372935652841	0.122098612607
1	2933	423.009733284095	0.122098612607
1	2938	423.148984042027	0.122098612607
1	2943	423.474636577031	0.122098612607
1	2948	423.990784709442	0.122098612607
1	2953	426.382194861197	0.122098612607
1	2958	426.792701019914	0.122098612607
1	2963	427.217942383518	0.122098612607
1	2968	427.666075101516	0.122098612607
1	2973	428.57063948707	0.122098612607
1	2978	430.313885323284	0.122098612607
1	2983	430.518725688901	0.122098612607
1	2988	430.80593219019	0.122098612607
1	2993	431.522864725587	0.122098612607
1	2998	431.7469832385	0.122098612607
1	3003	432.331837415171	0.122098612607
1	3008	433.055646724928	0.122098612607
1	3013	433.713229152891	0.122098612607
1	3018	433.842264410561	0.122098612607
1	3023	434.123152590607	0.122098612607
1	3028	434.511196528041	0.122098612607
1	3033	435.14528063366	0.122098612607
1	3038	435.964738821849	0.122098612607
1	3043	436.801734190899	0.122098612607
1	3048	437.36539370471	0.122098612607
1	3053	437.784370533781	0.122098612607
1	3058	438.316692210849	0.122098612607
1	3063	438.513699025194	0.122098612607
1	3068	438.777134465214	0.122098612607
1	3073	441.830119986401	0.122098612607
1	3078	443.745859188138	0.122098612607
1	3083	446.016088167158	0.122098612607
1	3088	446.174954507261	0.122098612607
1	3093	446.3860474215	0.122098612607
1	3100	446.547110054828	0.122098612607
1	3103	446.669208667435	0.229085462296
1	3108	448.421556795757	0.122098612607
1	3113	448.977122828531	0.122098612607
1	3118	449.30323559452	0.122098612607
1	3123	449.571735542927	0.122098612607
1	3128	451.69382725306	0.122098612607
1	3133	452.144161414931	0.122098612607
1	3138	453.080247346354	0.122098612607
1	3143	454.627879052254	0.122098612607
1	3148	455.374251734669	0.122098612607
1	3155	455.506072551548	0.122098612607
1	3158	455.628171164155	0.199849497527
1	3166	456.216666909453	0.122098612607
1	3169	456.33876552206	0.215965306108
1	3176	457.547230077954	0.122098612607
1	3179	457.669328690561	0.239932322583
1	3184	458.914100656905	0.122098612607
1	3189	460.37210066949	0.122098612607
1	3194	460.680015302737	0.122098612607
1	3201	462.48793568898	0.122098612607
1	3204	462.610034301587	0.160678622789
1	3209	463.857765830765	0.122098612607
1	3214	464.754604555699	0.122098612607
1	3219	465.046514689714	0.122098612607
1	3224	465.249208511855	0.122098612607
1	3229	465.583715644468	0.122098612607
1	3234	466.324142826705	0.122098612607
1	3239	466.790304811075	0.122098612607
1	3244	467.90042584227	0.122098612607
1	3249	468.570357786048	0.122098612607
1	3254	471.082448562545	0.122098612607
1	3261	471.838282740192	0.122098612607
1	3264	471.960381352799	0.192272287347
1	3269	472.914167893926	0.122098612607
1	3274	475.008140274979	0.122098612607
1	3279	475.841905668861	0.122098612607
1	3284	476.805363741918	0.122098612607
1	3289	477.676400928297	0.122098612607
1	3298	479.204780184837	0.122098612607
1	3301	479.326878797444	0.234203011941
1	3304	479.448977410051	0.327197562589
1	3309	479.821999017785	0.122098612607
1	3316	480.664204720179	0.122098612607
1	3319	480.786303332786	0.147041732382
1	3326	481.02456111833	0.122098612607
1	3329	481.146659730937	0.19727633884
1	3334	483.511940547585	0.122098612607
1	3339	483.727411466637	0.122098612607
1	3344	484.231223281177	0.122098612607
1	3351	484.97819744551	0.122098612607
1	3354	485.100296058117	0.168326658985
1	3359	486.961966301793	0.122098612607
1	3364	487.478343255979	0.122098612607
1	3369	487.686912632721	0.122098612607
1	3374	489.563310937152	0.122098612607
1	3381	490.214184443787	0.122098612607
1	3384	490.336283056394	0.185092610402
1	3389	490.939775497008	0.122098612607
1	3394	492.099783319672	0.122098612607
1	3399	492.648332610288	0.122098612607
1	3404	493.407138434681	0.122098612607
1	3409	493.790978847222	0.122098612607
1	3414	495.126772954987	0.122098612607
1	3419	496.118601150721	0.122098612607
1	3424	496.321905280629	0.122098612607
1	3431	496.503745093624	0.122098612607
1	3434	496.625843706231	0.230244337221
1	3441	498.034860520137	0.122098612607
1	3444	498.156959132744	0.234840727191
1	3449	499.163846736184	0.122098612607
1	3454	500.52850892701	0.122098612607
1	3459	501.266795810833	0.122098612607
1	3464	504.753864337539	0.122098612607
1	3469	505.109144007995	0.122098612607
1	3474	506.024249209768	0.122098612607
1	3479	508.174269657004	0.122098612607
1	3484	508.576801138135	0.122098612607
1	3489	509.07600560858	0.122098612607
1	3494	509.475565298902	0.122098612607
1	3499	509.614849450102	0.122098612607
1	3506	509.991515940422	0.122098612607
1	3509	510.113614553029	0.162083760692
1	3517	512.330827917821	0.122098612607
1	3520	512.452926530428	0.218076661278
1	3525	513.019457117042	0.122098612607
1	3530	513.271879703809	0.122098612607
1	3535	513.407713466244	0.122098612607
1	3540	514.241976095378	0.122098612607
1	3545	514.417789414007	0.122098612607
1	3550	515.625719191315	0.122098612607
1	3555	516.685694324631	0.122098612607
1	3562	518.588808218068	0.122098612607
1	3565	518.710906830675	0.234170048696
1	3570	519.421343391982	0.122098612607
1	3577	520.818898399028	0.122098612607
1	3580	520.940997011635	0.238424731203
1	3585	521.209425509727	0.122098612607
1	3590	522.422863003115	0.122098612607
1	3595	522.750827015324	0.122098612607
1	3600	522.879073012278	0.122098612607
1	3605	523.596849871202	0.122098612607
1	3610	524.143427279275	0.122098612607
1	3615	524.781675714331	0.122098612607
1	3620	525.804728801593	0.122098612607
1	3629	526.129987797046	0.122098612607
1	3632	526.252086409653	0.230906588664
1	3635	526.37418502226	0.259524600378
1	3640	526.805307999286	0.122098612607
1	3645	528.669268874606	0.122098612607
1	3650	528.891568173614	0.122098612607
1	3657	529.940176267865	0.122098612607
1	3660	530.062274880472	0.176005574919
1	3665	530.892561692531	0.122098612607
1	3672	531.731166231342	0.122098612607
1	3675	531.853264843949	0.133900954312
1	3682	532.55092386861	0.122098612607
1	3685	532.673022481217	0.184045575012
1	3690	532.841540283212	0.122098612607
1	3695	533.278789194056	0.122098612607
1	3700	535.106432623656	0.122098612607
1	3705	536.070018992289	0.122098612607
1	3710	538.303036624346	0.122098612607
1	3715	539.030598352472	0.122098612607
1	3720	539.529786782737	0.122098612607
1	3727	541.00338387067	0.122098612607
1	3730	541.125482483277	0.157167934892
1	3735	541.432084456534	0.122098612607
1	3740	542.375209848702	0.122098612607
1	3745	542.594345345976	0.122098612607
1	3750	544.015445490715	0.122098612607
1	3755	544.190315784415	0.122098612607
1	3760	545.23989074544	0.122098612607
1	3767	545.423712398466	0.122098612607
1	3770	545.545811011073	0.202180228855
1	3777	547.49616372415	0.122098612607
1	3780	547.618262336757	0.141534459565
1	3785	547.876792314045	0.122098612607
1	3790	548.927017986802	0.122098612607
1	3795	549.241478507301	0.122098612607
1	3800	549.526175321336	0.122098612607
1	3805	550.118056767386	0.122098612607
1	3810	550.417365700262	0.122098612607
1	3815	551.178950707852	0.122098612607
1	3820	551.313340480622	0.122098612607
1	3825	551.454696910299	0.122098612607
1	3830	555.808868666279	0.122098612607
1	3835	556.485975802486	0.122098612607
1	3840	556.827969725687	0.122098612607
1	3845	557.158520224514	0.122098612607
1	3850	557.485764659961	0.122098612607
1	3857	557.723097686001	0.122098612607
1	3860	557.845196298608	0.228216756637
1	3868	558.496591841633	0.122098612607
1	3871	558.61869045424	0.132843235988
1	3876	559.186571188038	0.122098612607
1	3881	561.222988291234	0.122098612607
1	3886	561.501247252543	0.122098612607
1	3893	561.824146160148	0.122098612607
1	3896	561.946244772755	0.199047580669
1	3903	562.16396071247	0.122098612607
1	3906	562.286059325077	0.180274907369
1	3913	563.894461042807	0.122098612607
1	3916	564.016559655414	0.172073444193
1	3921	565.182365890739	0.122098612607
1	3926	567.371479578531	0.122098612607
1	3931	567.496560253952	0.122098612607
1	3936	568.07755278014	0.122098612607
1	3941	568.365874608435	0.122098612607
1	3948	568.754643585369	0.122098612607
1	3951	568.876742197976	0.14249727084
1	3956	569.744945397504	0.122098612607
1	3963	570.297336309329	0.122098612607
1	3966	570.419434921936	0.141037240142
1	3971	571.982824242486	0.122098612607
1	3976	572.519122611245	0.122098612607
1	3981	572.801701419852	0.122098612607
1	3988	573.262233606508	0.122098612607
1	3993	573.384332219115	0.203266968662
1	3998	573.506430831722	0.210075552192
1	4001	573.628529444329	0.158661698091
1	4006	574.445237157387	0.122098612607
1	4011	575.681144541737	0.122098612607
1	4016	576.144598360683	0.122098612607
1	4021	578.160864916546	0.122098612607
1	4028	578.56188101353	0.122098612607
1	4031	578.683979626137	0.171573096889
1	4038	580.418220356044	0.122098612607
1	4041	580.540318968651	0.222865319261
1	4048	580.811162674243	0.122098612607
1	4051	580.93326128685	0.20057573164
1	4056	581.426064193071	0.122098612607
1	4061	581.621022471485	0.122098612607
1	4068	583.007535256074	0.122098612607
1	4073	583.129633868681	0.14826970258
1	4076	583.251732481288	0.220384263006
1	4081	584.080790304317	0.122098612607
1	4086	584.822874722637	0.122098612607
1	4093	586.907261806003	0.122098612607
1	4098	587.02936041861	0.149719663643
1	4101	587.151459031217	0.12480192487
1	4106	588.110248459599	0.122098612607
1	4111	590.126775130062	0.122098612607
1	4116	591.003784896043	0.122098612607
1	4123	591.811184474517	0.122098612607
1	4126	591.933283087124	0.184150673287
1	4131	592.696228837056	0.122098612607
1	4136	593.434318328293	0.122098612607
1	4143	593.7404082398	0.122098612607
1	4146	593.862506852407	0.146480067931
1	4155	594.416429414048	0.122098612607
1	4158	594.538528026655	0.179539561694
1	4161	594.660626639262	0.283093118597
1	4166	597.252713380944	0.122098612607
1	4171	597.980706361849	0.122098612607
1	4176	598.332789088082	0.122098612607
1	4181	598.963372230479	0.122098612607
1	4186	602.030978081989	0.122098612607
1	4191	602.643264198001	0.122098612607
1	4198	604.375548055149	0.122098612607
1	4201	604.497646667756	0.190996551151
1	4206	605.145567889846	0.122098612607
1	4213	605.74315958616	0.122098612607
1	4217	605.982750116824	0.343863032149
1	4224	606.320860970297	0.122098612607
1	4227	606.442959582904	0.216118228107
1	4232	606.863970368789	0.122098612607
1	4239	607.453143457189	0.122098612607
1	4242	607.575242069796	0.152493517402
1	4247	608.160923050484	0.122098612607
1	4254	609.203923543567	0.122098612607
1	4259	609.326022156174	0.213915919237
1	4262	609.448120768781	0.16123024167
1	4267	610.434688373702	0.122098612607
1	4276	610.970473046452	0.122098612607
1	4279	611.092571659059	0.207735713297
1	4282	611.214670271666	0.249877109295
1	4287	611.98549894198	0.122098612607
1	4292	612.853998430856	0.122098612607
1	4297	613.728014450395	0.122098612607
1	4302	614.636545861591	0.122098612607
1	4307	618.288748190709	0.122098612607
1	4312	619.560907539727	0.122098612607
1	4317	619.953842329814	0.122098612607
1	4322	621.113172750142	0.122098612607
1	4327	622.096690736855	0.122098612607
1	4332	622.616701884571	0.122098612607
1	4337	623.624043131825	0.122098612607
1	4344	623.875597244678	0.122098612607
1	4347	623.997695857285	0.146568709108
1	4354	626.852332034698	0.122098612607
1	4357	626.974430647305	0.134308439288
1	4362	627.589325397668	0.122098612607
1	4371	628.152013293214	0.122098612607
1	4374	628.274111905821	0.175656675384
1	4377	628.396210518428	0.276286202949
1	4382	628.752716915744	0.122098612607
1	4389	629.538820926162	0.122098612607
1	4392	629.660919538769	0.226265321332
1	4397	630.534431697132	0.122098612607
1	4402	632.946764938309	0.122098612607
1	4407	633.196335324026	0.122098612607
1	4414	633.399496516722	0.122098612607
1	4417	633.521595129329	0.153500425692
1	4422	635.996416976655	0.122098612607
1	4427	636.273677003688	0.122098612607
1	4432	636.473388741121	0.122098612607
1	4439	636.878914809418	0.122098612607
1	4442	637.001013422025	0.209426963673
1	4447	637.131235517894	0.122098612607
1	4452	637.989073079063	0.122098612607
1	4457	638.852688508474	0.122098612607
1	4464	639.174201962299	0.122098612607
1	4467	639.296300574906	0.163718728625
1	4472	639.802426834051	0.122098612607
1	4477	640.193947769193	0.122098612607
1	4482	640.503471785759	0.122098612607
1	4491	640.816297249576	0.122098612607
1	4494	640.938395862183	0.176037576279
1	4499	641.06049447479	0.281971399531
1	4502	641.182593087397	0.170196300225
1	4507	641.883482455294	0.122098612607
1	4512	642.209622868676	0.122098612607
1	4517	643.267939570652	0.122098612607
1	4522	643.867739038522	0.122098612607
1	4527	644.645246288793	0.122098612607
1	4532	644.770957907474	0.122098612607
1	4537	646.111044672823	0.122098612607
1	4542	646.692445052173	0.122098612607
1	4547	647.716384188227	0.122098612607
1	4552	648.916745749364	0.122098612607
1	4557	649.182187091613	0.122098612607
1	4564	649.875756813949	0.122098612607
1	4568	650.115347344613	0.265042316008
1	4573	650.665961538705	0.122098612607
1	4578	650.834333504626	0.122098612607
1	4583	651.051328023195	0.122098612607
1	4588	651.209456211182	0.122098612607
1	4593	654.208498572845	0.122098612607
1	4598	654.639040368239	0.122098612607
1	4603	655.380709702268	0.122098612607
1	4610	656.364377452716	0.122098612607
1	4613	656.486476065323	0.136942368253
1	4618	657.045172852816	0.122098612607
1	4623	657.973478475499	0.122098612607
1	4628	659.266034601428	0.122098612607
1	4633	662.816495043897	0.122098612607
1	4638	667.359990006145	0.122098612607
1	4643	668.169730009617	0.122098612607
1	4648	669.479347179112	0.122098612607
1	4653	670.105237447307	0.122098612607
1	4658	672.587530056312	0.122098612607
1	4663	673.121021737976	0.122098612607
1	4668	674.330951113292	0.122098612607
1	4673	674.6315736802	0.122098612607
1	4680	675.224347526069	0.122098612607
1	4683	675.346446138676	0.136951803535
1	4688	675.66662828454	0.122098612607
1	4693	677.652505148103	0.122098612607
1	4698	678.645838747436	0.122098612607
1	4703	679.673856687614	0.122098612607
1	4708	679.980498649294	0.122098612607
1	4715	681.122509662797	0.122098612607
1	4718	681.244608275404	0.189788967417
1	4723	682.462264941556	0.122098612607
1	4728	682.898066553503	0.122098612607
1	4733	683.602660065172	0.122098612607
1	4738	683.834648819718	0.122098612607
1	4743	685.085560218978	0.122098612607
1	4748	685.594827146919	0.122098612607
1	4753	686.379401946449	0.122098612607
1	4758	686.666796684828	0.122098612607
1	4765	687.217628453958	0.122098612607
1	4768	687.339727066565	0.198580536529
1	4775	688.891547914215	0.122098612607
1	4778	689.013646526822	0.146223780745
1	4783	689.199453405774	0.122098612607
1	4788	690.757275633992	0.122098612607
1	4793	690.989218167553	0.122098612607
1	4798	691.870482580014	0.122098612607
1	4803	692.146731450434	0.122098612607
1	4808	693.239409380717	0.122098612607
1	4813	693.4772362193	0.122098612607
1	4818	693.939811332425	0.122098612607
1	4823	695.654278209253	0.122098612607
1	4828	696.386563965653	0.122098612607
1	4833	698.617959708358	0.122098612607
1	4840	700.160312569794	0.122098612607
1	4843	700.282411182401	0.141363767559
1	4848	700.960326319049	0.122098612607
1	4853	702.178279074881	0.122098612607
1	4860	703.988448800041	0.122098612607
1	4863	704.110547412648	0.211036593179
1	4870	705.07062635432	0.122098612607
1	4875	705.192724966927	0.229351873678
1	4878	705.314823579534	0.189322032534
1	4889	705.648364698709	0.122098612607
1	4894	705.770463311316	0.211236770376
1	4897	705.892561923923	0.325109110487
1	4900	706.01466053653	0.406627638821
1	4903	706.136759149137	0.388163885829
1	4908	706.360475752194	0.122098612607
1	4915	707.257407650583	0.122098612607
1	4921	707.496998181247	0.251432951206
1	4924	707.619096793854	0.343700511769
1	4929	707.906418171278	0.122098612607
1	4934	709.739270322232	0.122098612607
1	4939	709.9272023542	0.122098612607
1	4946	710.399186795268	0.122098612607
1	4949	710.521285407875	0.159396641222
1	4954	710.875735742824	0.122098612607
1	4959	712.179217389092	0.122098612607
1	4964	712.684634244916	0.122098612607
1	4969	712.927404369431	0.122098612607
1	4976	713.41040906283	0.122098612607
1	4979	713.532507675437	0.197222712578
1	4986	713.72934573768	0.122098612607
1	4993	713.851444350287	0.208837025915
1	4996	713.973542962894	0.214791964896
1	4999	714.095641575501	0.280081498353
1	5004	714.481664291394	0.122098612607
1	5011	714.955968524528	0.122098612607
1	5014	715.078067137135	0.231445110403
1	5019	716.640649665841	0.122098612607
1	5024	716.854739921024	0.122098612607
1	5029	717.915458100196	0.122098612607
1	5036	718.29043565906	0.122098612607
1	5039	718.412534271667	0.174458756387
1	5044	718.673841198097	0.122098612607
1	5049	719.126418870218	0.122098612607
1	5054	721.074878386824	0.122098612607
1	5061	721.222692572835	0.122098612607
1	5066	721.344791185442	0.159402951497
1	5071	721.466889798049	0.178992409639
1	5074	721.588988410656	0.152001658686
1	5079	722.444350585912	0.122098612607
1	5084	722.856726469066	0.122098612607
1	5091	723.078410079599	0.122098612607
1	5094	723.200508692206	0.127502411919
1	5099	724.052012527961	0.122098612607
1	5104	724.898651791832	0.122098612607
1	5109	726.4442596435	0.122098612607
1	5114	728.549367646692	0.122098612607
1	5119	730.078290657819	0.122098612607
1	5126	730.227495710894	0.122098612607
1	5129	730.349594323501	0.145754485555
1	5134	730.473053364477	0.122098612607
1	5141	730.640636293003	0.122098612607
1	5144	730.76273490561	0.215980881042
1	5149	731.859576589303	0.122098612607
1	5154	733.507537689321	0.122098612607
1	5159	734.744479345245	0.122098612607
1	5164	735.424615505324	0.122098612607
1	5171	736.050494199186	0.122098612607
1	5174	736.172592811793	0.180064080694
1	5179	736.574633813269	0.122098612607
1	5184	736.877322996465	0.122098612607
1	5189	737.23111868868	0.122098612607
1	5194	738.027671166392	0.122098612607
1	5203	738.7964793811	0.122098612607
1	5206	738.918577993707	0.13652708431
1	5209	739.040676606314	0.24436003864
1	5214	739.900267906171	0.122098612607
1	5219	742.394756670728	0.122098612607
1	5224	743.169808498724	0.122098612607
1	5229	743.54224302081	0.122098612607
1	5234	744.713217724626	0.122098612607
1	5239	745.559326430735	0.122098612607
1	5244	746.197408874735	0.122098612607
1	5249	748.246191442762	0.122098612607
1	5254	749.515725099839	0.122098612607
1	5259	752.679742311235	0.122098612607
1	5264	753.452634460388	0.122098612607
1	5272	754.009755169521	0.122098612607
1	5275	754.131853782128	0.195998021569
1	5280	754.648324864209	0.122098612607
1	5285	755.913652967106	0.122098612607
1	5290	756.045725749276	0.122098612607
1	5295	757.017310963179	0.122098612607
1	5300	757.530413591961	0.122098612607
1	5305	757.847235475025	0.122098612607
1	5310	759.019462065124	0.122098612607
1	5315	759.466467455033	0.122098612607
1	5320	760.016880523973	0.122098612607
1	5325	762.69750964809	0.122098612607
1	5330	763.063259691065	0.122098612607
1	5335	763.569717770235	0.122098612607
1	5340	763.942107387498	0.122098612607
1	5345	764.705166090251	0.122098612607
1	5352	766.035168081222	0.122098612607
1	5357	766.157266693829	0.18998867182
1	5360	766.279365306436	0.180690059154
1	5365	766.880337744164	0.122098612607
1	5372	767.078048385638	0.122098612607
1	5375	767.200146998245	0.158480503376
1	5380	767.549386753456	0.122098612607
1	5385	768.197337758034	0.122098612607
1	5392	768.524383337047	0.122098612607
1	5395	768.646481949654	0.209159989444
1	5400	769.557367725468	0.122098612607
1	5405	769.747887369812	0.122098612607
1	5410	770.382908919537	0.122098612607
1	5415	771.198936061692	0.122098612607
1	5420	771.368292084459	0.122098612607
1	5427	772.331211447343	0.122098612607
1	5430	772.45331005995	0.21494944245
1	5435	773.230317568592	0.122098612607
1	5440	773.975169157117	0.122098612607
1	5445	774.381885864136	0.122098612607
1	5450	774.689481921653	0.122098612607
1	5455	776.334111958214	0.122098612607
1	5460	776.504503481377	0.122098612607
1	5465	778.4760626298	0.122098612607
1	5470	779.462292073246	0.122098612607
1	5475	779.831137676339	0.122098612607
1	5480	780.753773893403	0.122098612607
1	5485	781.641603786578	0.122098612607
1	5492	781.903650805883	0.122098612607
1	5497	782.02574941849	0.243381361088
1	5502	782.147848031097	0.181265656198
1	5505	782.269946643704	0.225428142618
1	5510	782.725765140553	0.122098612607
1	5515	783.084332652491	0.122098612607
1	5520	784.450300473471	0.122098612607
1	5525	785.394898634276	0.122098612607
1	5530	786.113990274239	0.122098612607
1	5537	786.930650452861	0.122098612607
1	5540	787.052749065468	0.2353187168
1	5545	787.546377869303	0.122098612607
1	5550	788.292565993259	0.122098612607
1	5555	789.055065521274	0.122098612607
1	5560	789.347423839879	0.122098612607
1	5565	789.542461873292	0.122098612607
1	5570	790.024617466992	0.122098612607
1	5575	790.877797207043	0.122098612607
1	5580	791.596852517293	0.122098612607
1	5585	792.655019721632	0.122098612607
1	5592	792.959203545823	0.122098612607
1	5595	793.08130215843	0.22413093904
1	5600	793.315368150136	0.122098612607
1	5605	793.949167701711	0.122098612607
1	5610	795.204522109313	0.122098612607
1	5617	796.111555041398	0.122098612607
1	5621	796.351145572062	0.329553816828
1	5626	796.99131929702	0.122098612607
1	5631	797.474570145896	0.122098612607
1	5636	798.152462255761	0.122098612607
1	5641	799.867691354734	0.122098612607
1	5648	800.167997763049	0.122098612607
1	5651	800.290096375656	0.211249931648
1	5656	801.829083434121	0.122098612607
1	5661	802.262866338321	0.122098612607
1	5666	802.793698235455	0.122098612607
1	5671	802.952476204695	0.122098612607
1	5676	803.312164058724	0.122098612607
1	5681	803.893071546868	0.122098612607
1	5686	804.428317233517	0.122098612607
1	5691	804.729070150631	0.122098612607
1	5696	807.117401093907	0.122098612607
1	5703	807.989882090213	0.122098612607
1	5706	808.11198070282	0.145965111275
1	5711	808.905458842233	0.122098612607
1	5716	809.269497344298	0.122098612607
1	5721	809.590548783984	0.122098612607
1	5726	810.038521094331	0.122098612607
1	5731	810.447550959604	0.122098612607
1	5736	810.655424523559	0.122098612607
1	5741	811.271778579553	0.122098612607
1	5746	811.772740927355	0.122098612607
1	5751	812.68072306869	0.122098612607
1	5758	813.160630340187	0.122098612607
1	5763	813.282728952794	0.127360622099
1	5766	813.404827565401	0.222203536399
1	5771	813.906101296095	0.122098612607
1	5776	816.716360857222	0.122098612607
1	5781	817.351365978031	0.122098612607
1	5786	817.603223923096	0.122098612607
1	5791	817.750391883778	0.122098612607
1	5796	818.157587361709	0.122098612607
1	5801	819.745646516985	0.122098612607
1	5806	821.864341500819	0.122098612607
1	5811	822.240178094188	0.122098612607
1	5816	822.756583998034	0.122098612607
1	5821	823.430043581972	0.122098612607
1	5826	824.450934214046	0.122098612607
1	5831	824.822753395681	0.122098612607
1	5836	825.244373188194	0.122098612607
1	5841	825.852170052152	0.122098612607
1	5846	827.244965953644	0.122098612607
1	5851	827.979855343169	0.122098612607
1	5856	829.456822844163	0.122098612607
1	5861	830.041373753459	0.122098612607
1	5866	830.203280182401	0.122098612607
1	5871	831.185490629562	0.122098612607
1	5878	831.787103306968	0.122098612607
1	5881	831.909201919575	0.238110044532
1	5890	833.098052073253	0.122098612607
1	5893	833.22015068586	0.188287779958
1	5896	833.342249298467	0.306287512073
1	5901	834.838702596712	0.122098612607
1	5906	835.020041939869	0.122098612607
1	5911	837.102295740497	0.122098612607
1	5916	837.732909408791	0.122098612607
1	5921	838.591640857545	0.122098612607
1	5926	838.979019860656	0.122098612607
1	5931	839.618111292113	0.122098612607
1	5936	840.466397962902	0.122098612607
1	5945	842.137551840367	0.122098612607
1	5948	842.259650452974	0.219685687226
1	5951	842.381749065581	0.329392439235
1	5956	843.822528507056	0.122098612607
1	5961	844.205209435404	0.122098612607
1	5966	844.619247560332	0.122098612607
1	5972	845.079351752796	0.122098612607
1	5979	847.115319411657	0.122098612607
1	5982	847.237418024264	0.146920072029
1	5987	849.508724160923	0.122098612607
1	5992	849.817129631758	0.122098612607
1	5997	850.337883977149	0.122098612607
1	6002	850.693684206261	0.122098612607
1	6007	851.141663259481	0.122098612607
1	6012	851.330118533702	0.122098612607
1	6017	852.293460774049	0.122098612607
1	6022	852.514100545521	0.122098612607
1	6027	852.685503720006	0.122098612607
1	6032	852.957755601359	0.122098612607
1	6039	853.114650027947	0.122098612607
1	6042	853.236748640554	0.195945971434
1	6049	854.091130558448	0.122098612607
1	6052	854.213229171055	0.187063261535
1	6057	856.147764615888	0.122098612607
1	6064	856.743039060108	0.122098612607
1	6067	856.865137672715	0.208310056471
1	6072	857.771361262708	0.122098612607
1	6077	858.460523578132	0.122098612607
1	6084	859.48233910608	0.122098612607
1	6087	859.604437718687	0.172630083672
1	6092	859.831131077847	0.122098612607
1	6099	860.001530196426	0.122098612607
1	6104	860.123628809033	0.209977008706
1	6107	860.24572742164	0.195477168848
1	6112	860.450798078239	0.122098612607
1	6117	860.764909694878	0.122098612607
1	6122	864.838697239138	0.122098612607
1	6127	865.046335761994	0.122098612607
1	6132	866.151157002085	0.122098612607
1	6137	866.472690313378	0.122098612607
1	6144	866.904488078834	0.122098612607
1	6147	867.026586691441	0.238176920592
1	6152	867.188491746722	0.122098612607
1	6157	869.808298870968	0.122098612607
1	6164	871.621132104815	0.122098612607
1	6167	871.743230717422	0.201582145219
1	6172	872.139081207741	0.122098612607
1	6177	872.31830993382	0.122098612607
1	6182	872.56757610252	0.122098612607
1	6187	873.059792253748	0.122098612607
1	6192	873.360621523368	0.122098612607
1	6197	874.472310880885	0.122098612607
1	6202	876.950633861756	0.122098612607
1	6207	877.084937947372	0.122098612607
1	6212	878.149820078318	0.122098612607
1	6217	879.614327433811	0.122098612607
1	6224	879.775602780751	0.122098612607
1	6227	879.897701393358	0.178444137665
1	6232	880.389779017284	0.122098612607
1	6237	881.844825662906	0.122098612607
1	6242	884.543311659777	0.122098612607
1	6247	885.829786581391	0.122098612607
1	6252	886.176247797582	0.122098612607
1	6257	886.724819027166	0.122098612607
1	6262	887.08331997132	0.122098612607
1	6267	887.41091832664	0.122098612607
1	6272	887.810872030437	0.122098612607
1	6279	888.395457092921	0.122098612607
1	6286	888.517555705528	0.239008299789
1	6289	888.639654318135	0.203757784697
1	6292	888.761752930742	0.248214141398
1	6299	888.905897615614	0.122098612607
1	6302	889.027996228221	0.145786717657
1	6307	892.779000374208	0.122098612607
1	6312	893.331947493262	0.122098612607
1	6317	895.313818341767	0.122098612607
1	6323	895.625520184673	0.122098612607
1	6328	896.573592660654	0.122098612607
1	6333	897.086617326547	0.122098612607
1	6338	897.226000134878	0.122098612607
1	6343	898.132648468185	0.122098612607
1	6348	898.945480821422	0.122098612607
1	6355	900.188237397209	0.122098612607
1	6358	900.310336009816	0.168433985724
1	6363	901.493689960694	0.122098612607
1	6368	902.506870537161	0.122098612607
1	6373	903.073836561798	0.122098612607
1	6378	904.874641437787	0.122098612607
1	6385	906.728152392259	0.122098612607
1	6388	906.850251004866	0.240437094476
1	6393	907.436098376671	0.122098612607
1	6398	909.857134882339	0.122098612607
1	6405	911.527641408466	0.122098612607
1	6408	911.649740021073	0.208044158032
1	6413	911.911605427842	0.122098612607
1	6418	912.823322901549	0.122098612607
1	6423	913.791298293893	0.122098612607
1	6428	914.023410445537	0.122098612607
1	6433	914.338475846678	0.122098612607
1	6440	915.151029146354	0.122098612607
1	6443	915.273127758961	0.147679407982
1	6448	915.692106923679	0.122098612607
1	6453	916.68493546927	0.122098612607
1	6458	916.95274362944	0.122098612607
1	6463	917.721567919161	0.122098612607
1	6468	918.387405844735	0.122098612607
1	6475	919.05206843974	0.122098612607
1	6478	919.174167052347	0.221985127952
1	6483	919.931703665099	0.122098612607
1	6488	920.894384353109	0.122098612607
1	6493	922.026642982838	0.122098612607
1	6502	923.345437947018	0.122098612607
1	6505	923.467536559625	0.243656899707
1	6508	923.589635172232	0.317107502283
1	6513	923.922697675202	0.122098612607
1	6518	925.743835290612	0.122098612607
1	6525	926.339582475732	0.122098612607
1	6528	926.461681088339	0.228408348952
1	6535	928.511554434333	0.122098612607
1	6538	928.63365304694	0.130029734075
1	6543	928.765845517636	0.122098612607
1	6548	929.443850282998	0.122098612607
1	6553	931.632378281047	0.122098612607
1	6558	931.860323620996	0.122098612607
1	6563	932.455657479812	0.122098612607
1	6568	933.459540266687	0.122098612607
1	6573	934.316318972227	0.122098612607
1	6578	935.071277935855	0.122098612607
1	6583	935.59315607986	0.122098612607
1	6590	936.477573938864	0.122098612607
1	6593	936.599672551471	0.126402996747
1	6598	937.470513419229	0.122098612607
1	6603	937.71154657228	0.122098612607
1	6608	938.446141355897	0.122098612607
1	6613	938.993846342998	0.122098612607
1	6618	941.371752080663	0.122098612607
1	6623	941.57493922431	0.122098612607
1	6628	943.097328526867	0.122098612607
1	6633	943.359178920578	0.122098612607
1	6638	943.862437780536	0.122098612607
1	6643	944.051124343597	0.122098612607
1	6648	945.408537356085	0.122098612607
1	6653	945.868897891077	0.122098612607
1	6658	947.102927262271	0.122098612607
1	6665	947.932219006938	0.122098612607
1	6668	948.054317619545	0.230057618596
1	6674	948.447539032023	0.122098612607
1	6679	949.324775886202	0.122098612607
1	6684	949.843255097459	0.122098612607
1	6689	950.043379974976	0.122098612607
1	6694	950.986193156249	0.122098612607
1	6699	951.766333662824	0.122098612607
1	6704	953.29016396677	0.122098612607
1	6709	954.029960586199	0.122098612607
1	6716	954.420815931755	0.122098612607
1	6719	954.542914544362	0.223168557933
1	6724	956.860994766473	0.122098612607
1	6729	957.409205241661	0.122098612607
1	6734	958.377464641284	0.122098612607
1	6739	959.633556839283	0.122098612607
1	6744	960.667051785162	0.122098612607
1	6749	961.11614886175	0.122098612607
1	6754	961.61421203364	0.122098612607
1	6759	962.183011108518	0.122098612607
1	6764	962.872900246105	0.122098612607
1	6769	964.227718408999	0.122098612607
1	6774	964.379877347179	0.122098612607
1	6779	966.001359090466	0.122098612607
1	6784	967.644975182507	0.122098612607
1	6789	968.034069553768	0.122098612607
1	6794	968.225482961557	0.122098612607
1	6799	969.961467631284	0.122098612607
1	6804	971.016078738259	0.122098612607
1	6809	971.525514271812	0.122098612607
1	6814	972.017446200632	0.122098612607
1	6821	972.312633575039	0.122098612607
1	6824	972.434732187646	0.141442326195
1	6829	973.598518725593	0.122098612607
1	6834	974.236745010294	0.122098612607
1	6839	975.007077300113	0.122098612607
1	6846	975.902742862649	0.122098612607
1	6849	976.024841475256	0.1481568053
1	6854	978.058536293678	0.122098612607
1	6859	978.474135358275	0.122098612607
1	6864	978.655336341593	0.122098612607
1	6871	980.180807958468	0.122098612607
1	6874	980.302906571075	0.171787170032
1	6881	980.932023650491	0.122098612607
1	6884	981.054122263098	0.243120491695
1	6889	981.848510829974	0.122098612607
1	6896	983.110901118456	0.122098612607
1	6899	983.232999731063	0.150059088054
1	6904	983.866783837673	0.122098612607
1	6909	986.299410169516	0.122098612607
1	6914	987.471844574522	0.122098612607
1	6919	988.371840949526	0.122098612607
1	6924	988.614191753826	0.122098612607
1	6929	989.04260673209	0.122098612607
1	6934	989.828735250453	0.122098612607
1	6939	990.04198546725	0.122098612607
1	6944	990.751578553725	0.122098612607
1	6949	992.138772996428	0.122098612607
1	6954	992.639826301688	0.122098612607
1	6959	993.590439147145	0.122098612607
1	6964	993.763820100814	0.122098612607
1	6969	994.034512073266	0.122098612607
1	6974	994.312882640374	0.122098612607
1	6979	994.620807253581	0.122098612607
1	6984	994.857327996903	0.122098612607
1	6989	996.177858519661	0.122098612607
1	6994	997.270593662849	0.122098612607
1	6999	998.011353956548	0.122098612607
1	7004	998.333755960701	0.122098612607
1	7009	998.742563238975	0.122098612607
1	7014	999.071656979854	0.122098612607
1	7019	999.76354534101	0.122098612607
2	5	0.437515545344	0
2	10	0.670429781206	0
2	15	2.673920022411	0
2	20	3.920287848862	0
2	25	4.866759708941	0
2	30	5.34222970935	0
2	35	5.634532672938	0
2	40	6.523125811938	0
2	47	6.844696119424	0
2	50	6.966794732031	0.063328552179
2	55	8.514026742076	0
2	62	9.59674902257	0
2	65	9.718847635177	0.025517288705
2	70	10.261375293443	0
2	77	10.931477648343	0
2	80	11.05357626095	0.000817655345
2	85	11.361655854592	0
2	90	12.026590665308	0
2	95	12.612654785892	0
2	100	12.875881014363	0
2	107	13.434791955216	0
2	110	13.556890567823	0.015431429629
2	117	15.778864083703	0
2	120	15.90096269631	0.093012996327
2	125	16.76147181794	0
2	130	18.909305664272	0
2	135	19.07531829907	0
2	140	19.476697819693	0
2	145	21.409829537234	0
2	150	22.995182664197	0
2	155	23.683936628051	0
2	162	24.538288239967	0
2	165	24.660386852574	0.062771992389
2	170	24.841298600712	0
2	175	25.632185605383	0
2	180	26.323807674318	0
2	185	26.697282811299	0
2	190	27.461178409311	0
2	195	27.93186320603	0
2	202	29.002901083423	0
2	205	29.12499969603	0.10224527402
2	210	31.113222854653	0
2	215	31.518549246872	0
2	220	32.317992893077	0
2	225	32.655356353113	0
2	232	34.031970083939	0
2	235	34.154068696546	0.044218493211
2	240	34.493782441211	0
2	245	36.595849070405	0
2	250	36.751348617612	0
2	255	37.638174409065	0
2	260	38.44334645208	0
2	265	40.330520383717	0
2	270	40.469295806485	0
2	277	41.137664262487	0
2	280	41.259762875094	0.007983868633
2	285	41.5268011866	0
2	290	42.896913419423	0
2	295	43.273310907981	0
2	302	43.958571333675	0
2	307	44.080669946282	0.04255126715
2	312	44.202768558889	0.018762247944
2	315	44.324867171496	0.01418625449
2	320	44.978328572033	0
2	325	46.308250733777	0
2	330	47.002228882223	0
2	335	47.194876581144	0
2	340	47.381944207396	0
2	345	48.040628504182	0
2	350	48.231672971439	0
2	358	48.604456631489	0
2	363	48.726555244096	0.001784884987
2	366	48.848653856703	0.049273011172
2	371	50.461856088708	0
2	376	50.725539952937	0
2	383	51.636534958861	0
2	386	51.758633571468	0.032579676118
2	391	52.256812819418	0
2	398	53.290831467993	0
2	401	53.4129300806	0.075024553029
2	408	54.236294087426	0
2	411	54.358392700033	0.034700733639
2	416	55.802846656477	0
2	421	56.18418482495	0
2	426	56.606922793552	0
2	431	57.691543171464	0
2	436	57.828600251212	0
2	441	58.263884861405	0
2	446	59.221182097502	0
2	451	59.525773405904	0
2	456	60.416668539703	0
2	463	61.033237853644	0
2	466	61.155336466251	0.095649712399
2	471	62.955227337848	0
2	476	63.991397135672	0
2	483	65.160289100427	0
2	486	65.282387713034	0.042947209816
2	491	66.035179650414	0
2	498	67.687512495547	0
2	501	67.809611108154	0.011162454943
2	506	67.991760148438	0
2	511	68.511643081355	0
2	516	69.192232384084	0
2	521	69.88244413459	0
2	526	70.490525845345	0
2	533	70.975498796658	0
2	536	71.097597409265	0.003033671038
2	541	72.592101938877	0
2	548	72.916304065077	0
2	553	73.038402677684	0.021448151967
2	556	73.160501290291	0.019545083318
2	561	74.383330376485	0
2	566	75.528285968991	0
2	571	75.773517529261	0
2	576	75.978821785209	0
2	581	76.757217382836	0
2	588	78.88119251287	0
2	591	79.003291125477	0.100671749907
2	596	79.836321073092	0
2	603	81.317164132679	0
2	606	81.439262745286	0.07902274973
2	611	81.818013946093	0
2	616	81.976036998207	0
2	621	82.196500376255	0
2	626	82.328851938072	0
2	631	83.682195792862	0
2	636	83.8670259907	0
2	641	84.447756146557	0
2	646	86.628398226551	0
2	651	86.908332104771	0
2	656	87.467308043711	0
2	661	87.799334410792	0
2	666	88.327177631616	0
2	671	88.589941177617	0
2	676	88.871643241778	0
2	681	90.57257302621	0
2	686	91.173053692851	0
2	691	92.540527063899	0
2	696	93.764091693915	0
2	701	93.984931984536	0
2	707	94.413549532974	0
2	712	94.578724204703	0
2	717	95.841524361842	0
2	722	96.224065988953	0
2	727	97.031480084339	0
2	732	97.738680854774	0
2	737	99.92165191832	0
2	742	101.042074357955	0
2	747	101.761700824544	0
2	752	104.425377011278	0
2	757	105.762490592892	0
2	764	107.456380134198	0
2	769	107.578478746805	0.049699358564
2	774	107.700577359412	0.008522318229
2	777	107.822675972019	0.101087419
2	784	108.234737870698	0
2	787	108.356836483305	0.042639698086
2	792	108.71132799167	0
2	797	110.005219335194	0
2	806	110.457250834195	0
2	811	110.579349446802	0.109146540334
2	814	110.701448059409	0.23013162637
2	819	110.823546672016	0.190825415207
2	824	110.945645284623	0.014678604196
2	829	111.06774389723	0.035495402185
2	834	111.189842509837	0.110223656524
2	837	111.311941122444	0.024431474576
2	842	111.664310995836	0
2	847	112.229106413265	0
2	852	113.587596407599	0
2	857	114.899853416857	0
2	862	116.491908729641	0
2	867	117.513037476417	0
2	872	118.74481049985	0
2	877	120.14859569539	0
2	882	120.631839325289	0
2	887	121.874469561376	0
2	892	122.006839221546	0
2	901	122.578337027365	0
2	904	122.700435639972	0.042545642558
2	909	122.822534252579	0.162710769988
2	912	122.944632865186	0.084513291206
2	917	123.266080048692	0
2	922	124.366486669913	0
2	927	124.9098771093	0
2	936	126.651360897756	0
2	939	126.773459510363	0.094475086904
2	942	126.89555812297	0.173388945064
2	947	127.936519763979	0
2	952	128.969610111495	0
2	957	129.584189653905	0
2	962	129.92220219017	0
2	967	130.794738471506	0
2	972	131.888336331961	0
2	977	132.513873227763	0
2	982	132.730747140064	0
2	987	133.741424736192	0
2	992	134.271989963016	0
2	997	135.509998652066	0
2	1004	135.840135607997	0
2	1007	135.962234220604	0.049551605897
2	1014	136.241406703511	0
2	1017	136.363505316118	0.034281692574
2	1022	137.956648422462	0
2	1027	138.19588553408	0
2	1032	138.861092339308	0
2	1037	139.731794273766	0
2	1042	140.374684136164	0
2	1047	141.8822353714	0
2	1054	142.598843583782	0
2	1060	142.838434114446	0.193995310906
2	1063	142.960532727053	0.232081801496
2	1070	143.250433608022	0
2	1075	143.372532220629	0.045955285852
2	1078	143.494630833236	0.00596621363
2	1083	145.806563265225	0
2	1088	148.002973975728	0
2	1093	148.608943705535	0
2	1098	149.057888185336	0
2	1103	151.647532967632	0
2	1108	152.329924071128	0
2	1113	153.070220468364	0
2	1118	154.921316610269	0
2	1123	155.298902241683	0
2	1128	155.615852902133	0
2	1133	159.042690790671	0
2	1138	160.068651715005	0
2	1143	161.618606061128	0
2	1148	162.242235661646	0
2	1153	163.388978131816	0
2	1158	163.782013640326	0
2	1163	164.218589561842	0
2	1172	164.510105683256	0
2	1175	164.632204295863	0.057819387409
2	1178	164.75430290847	0.149361044282
2	1183	165.476602189896	0
2	1188	166.356011005827	0
2	1193	168.082131045856	0
2	1198	169.615189310855	0
2	1205	169.783848419687	0
2	1210	169.905947032294	0.001796932298
2	1215	170.028045644901	0.034984411363
2	1218	170.150144257508	0.026241514111
2	1223	171.497403743203	0
2	1228	172.457253665801	0
2	1233	172.947791260013	0
2	1238	173.54126463484	0
2	1243	174.485522950182	0
2	1248	175.127152065706	0
2	1253	175.638810206187	0
2	1258	176.234530653988	0
2	1263	177.24983388225	0
2	1268	178.66279725485	0
2	1273	179.295409075585	0
2	1278	181.12585645312	0
2	1283	181.982515931786	0
2	1288	182.36932962205	0
2	1293	184.827890628298	0
2	1298	185.625706721837	0
2	1303	185.819678202712	0
2	1308	186.106271466302	0
2	1315	186.353783312725	0
2	1318	186.475881925332	0.095339501878
2	1323	187.027315552873	0
2	1328	188.014851704968	0
2	1333	190.026398761513	0
2	1338	191.153960108981	0
2	1345	191.583935723171	0
2	1348	191.706034335778	0.018597242702
2	1353	191.845985693037	0
2	1358	192.10157233914	0
2	1363	195.463640406656	0
2	1368	197.682127128525	0
2	1375	198.894473883392	0
2	1378	199.016572495999	0.010192093587
2	1383	199.490469216876	0
2	1388	202.263146142088	0
2	1393	204.205414570292	0
2	1398	205.322490579184	0
2	1407	206.148252518441	0
2	1411	206.387843049105	0.160887457862
2	1414	206.509941661712	0.274466307976
2	1419	207.025702104289	0
2	1424	207.171228972763	0
2	1431	209.985615225797	0
2	1434	210.107713838404	0.056013055351
2	1439	211.558470449974	0
2	1444	212.536847755095	0
2	1449	212.851074484241	0
2	1454	213.337738125653	0
2	1459	213.553944443417	0
2	1464	214.695123097634	0
2	1469	216.57147869359	0
2	1474	217.877802581462	0
2	1479	219.830557549752	0
2	1484	220.074248166274	0
2	1489	220.400985456696	0
2	1494	221.593553989739	0
2	1499	221.835190939422	0
2	1504	222.590054235257	0
2	1509	223.327680262294	0
2	1514	225.1256826603	0
2	1521	226.095650750105	0
2	1524	226.217749362712	0.066627122766
2	1529	226.437972614082	0
2	1536	227.700110366182	0
2	1539	227.822208978789	0.097917674111
2	1544	228.217608017182	0
2	1549	229.08678476222	0
2	1554	233.642231914383	0
2	1559	233.958282398717	0
2	1564	234.862731148962	0
2	1569	235.799197660765	0
2	1574	236.65391733991	0
2	1579	238.471136124432	0
2	1584	239.349296745536	0
2	1589	240.186279388156	0
2	1594	240.717804147391	0
2	1601	242.074269435937	0
2	1604	242.196368048544	0.024739779837
2	1609	242.631376337596	0
2	1614	243.845297898521	0
2	1619	244.131932287121	0
2	1624	245.756824086738	0
2	1629	246.11515524263	0
2	1636	246.495008138729	0
2	1639	246.617106751336	0.034593653038
2	1644	247.196091933584	0
2	1649	248.554038523633	0
2	1654	249.537590322519	0
2	1659	249.990964008161	0
2	1666	250.488115272314	0
2	1669	250.610213884921	0.062039359184
2	1674	251.806573951224	0
2	1679	253.058087797515	0
2	1684	253.196163700493	0
2	1691	254.625640663858	0
2	1694	254.747739276465	0.081286720865
2	1699	255.390089474339	0
2	1704	256.3481534901	0
2	1709	256.478568796394	0
2	1714	256.978596531022	0
2	1719	257.147188438365	0
2	1724	257.976279088512	0
2	1731	260.110307154168	0
2	1734	260.232405766775	0.114522377168
2	1739	261.336652374923	0
2	1744	262.150957024591	0
2	1749	264.386723677617	0
2	1754	265.023989837833	0
2	1762	265.936163950095	0
2	1767	266.058262562702	0.044928666199
2	1770	266.180361175309	0.004780008504
2	1775	266.870410555075	0
2	1780	267.232183192837	0
2	1785	268.165388074083	0
2	1790	268.37387171667	0
2	1795	269.496755782425	0
2	1800	271.098716213962	0
2	1805	271.525223337984	0
2	1810	272.258688333714	0
2	1815	273.351072831559	0
2	1820	274.05077206844	0
2	1825	274.327655948384	0
2	1830	277.565726405796	0
2	1835	279.154629219498	0
2	1840	280.013961424861	0
2	1847	280.950251396752	0
2	1850	281.072350009359	0.049641277562
2	1855	281.754204742826	0
2	1862	283.201611476743	0
2	1865	283.32371008935	0.002983496108
2	1870	283.980254421507	0
2	1875	284.428961154855	0
2	1880	285.549491381677	0
2	1885	286.301173265584	0
2	1890	286.649814142524	0
2	1895	286.793706224203	0
2	1900	288.328834980822	0
2	1905	288.574560878871	0
2	1910	288.706264507857	0
2	1915	289.997106935669	0
2	1920	290.859479734154	0
2	1925	291.349206137564	0
2	1932	292.325445946926	0
2	1935	292.447544559533	0.120149104271
2	1940	294.417996158631	0
2	1945	294.620208150005	0
2	1950	295.032813161315	0
2	1955	297.484744846317	0
2	1960	298.038547615746	0
2	1965	298.760147695136	0
2	1970	299.455712016147	0
2	1975	300.092293990886	0
2	1980	300.393005273947	0
2	1987	302.15492912413	0
2	1990	302.277027736737	0.104250160536
2	1995	302.933114778729	0
2	2004	304.202532048932	0
2	2007	304.324630661539	0.072328945933
2	2012	304.446729274146	0.158442467524
[...]
7	5049	719.126418870218	0
7	5054	721.074878386824	0
7	5061	721.222692572835	0
7	5066	721.344791185442	0
7	5071	721.466889798049	0
7	5074	721.588988410656	0
7	5079	722.444350585912	0
7	5084	722.856726469066	0
7	5091	723.078410079599	0
7	5094	723.200508692206	0
7	5099	724.052012527961	0
7	5104	724.898651791832	0
7	5109	726.4442596435	0
7	5114	728.549367646692	0
7	5119	730.078290657819	0
7	5126	730.227495710894	0
7	5129	730.349594323501	0
7	5134	730.473053364477	0
7	5141	730.640636293003	0
7	5144	730.76273490561	0
7	5149	731.859576589303	0
7	5154	733.507537689321	0
7	5159	734.744479345245	0
7	5164	735.424615505324	0
7	5171	736.050494199186	0
7	5174	736.172592811793	0
7	5179	736.574633813269	0
7	5184	736.877322996465	0
7	5189	737.23111868868	0
7	5194	738.027671166392	0
7	5203	738.7964793811	0
7	5206	738.918577993707	0
7	5209	739.040676606314	0
7	5214	739.900267906171	0
7	5219	742.394756670728	0
7	5224	743.169808498724	0
7	5229	743.54224302081	0
7	5234	744.713217724626	0
7	5239	745.559326430735	0
7	5244	746.197408874735	0
7	5249	748.246191442762	0
7	5254	749.515725099839	0
7	5259	752.679742311235	0
7	5264	753.452634460388	0
7	5272	754.009755169521	0
7	5275	754.131853782128	0
7	5280	754.648324864209	0
7	5285	755.913652967106	0
7	5290	756.045725749276	0
7	5295	757.017310963179	0
7	5300	757.530413591961	0
7	5305	757.847235475025	0
7	5310	759.019462065124	0
7	5315	759.466467455033	0
7	5320	760.016880523973	0
7	5325	762.69750964809	0
7	5330	763.063259691065	0
7	5335	763.569717770235	0
7	5340	763.942107387498	0
7	5345	764.705166090251	0
7	5352	766.035168081222	0
7	5357	766.157266693829	0
7	5360	766.279365306436	0
7	5365	766.880337744164	0
7	5372	767.078048385638	0
7	5375	767.200146998245	0
7	5380	767.549386753456	0
7	5385	768.197337758034	0
7	5392	768.524383337047	0
7	5395	768.646481949654	0
7	5400	769.557367725468	0
7	5405	769.747887369812	0
7	5410	770.382908919537	0
7	5415	771.198936061692	0
7	5420	771.368292084459	0
7	5427	772.331211447343	0
7	5430	772.45331005995	0
7	5435	773.230317568592	0
7	5440	773.975169157117	0
7	5445	774.381885864136	0
7	5450	774.689481921653	0
7	5455	776.334111958214	0
7	5460	776.504503481377	0
7	5465	778.4760626298	0
7	5470	779.462292073246	0
7	5475	779.831137676339	0
7	5480	780.753773893403	0
7	5485	781.641603786578	0
7	5492	781.903650805883	0
7	5497	782.02574941849	0
7	5502	782.147848031097	0
7	5505	782.269946643704	0
7	5510	782.725765140553	0
7	5515	783.084332652491	0
7	5520	784.450300473471	0
7	5525	785.394898634276	0
7	5530	786.113990274239	0
7	5537	786.930650452861	0
7	5540	787.052749065468	0
7	5545	787.546377869303	0
7	5550	788.292565993259	0
7	5555	789.055065521274	0
7	5560	789.347423839879	0
7	5565	789.542461873292	0
7	5570	790.024617466992	0
7	5575	790.877797207043	0
7	5580	791.596852517293	0
7	5585	792.655019721632	0
7	5592	792.959203545823	0
7	5595	793.08130215843	0
7	5600	793.315368150136	0
7	5605	793.949167701711	0
7	5610	795.204522109313	0
7	5617	796.111555041398	0
7	5621	796.351145572062	0
7	5626	796.99131929702	0
7	5631	797.474570145896	0
7	5636	798.152462255761	0
7	5641	799.867691354734	0
7	5648	800.167997763049	0
7	5651	800.290096375656	0
7	5656	801.829083434121	0
7	5661	802.262866338321	0
7	5666	802.793698235455	0
7	5671	802.952476204695	0
7	5676	803.312164058724	0
7	5681	803.893071546868	0
7	5686	804.428317233517	0
7	5691	804.729070150631	0
7	5696	807.117401093907	0
7	5703	807.989882090213	0
7	5706	808.11198070282	0
7	5711	808.905458842233	0
7	5716	809.269497344298	0
7	5721	809.590548783984	0
7	5726	810.038521094331	0
7	5731	810.447550959604	0
7	5736	810.655424523559	0
7	5741	811.271778579553	0
7	5746	811.772740927355	0
7	5751	812.68072306869	0
7	5758	813.160630340187	0
7	5763	813.282728952794	0
7	5766	813.404827565401	0
7	5771	813.906101296095	0
7	5776	816.716360857222	0
7	5781	817.351365978031	0
7	5786	817.603223923096	0
7	5791	817.750391883778	0
7	5796	818.157587361709	0
7	5801	819.745646516985	0
7	5806	821.864341500819	0
7	5811	822.240178094188	0
7	5816	822.756583998034	0
7	5821	823.430043581972	0
7	5826	824.450934214046	0
7	5831	824.822753395681	0
7	5836	825.244373188194	0
7	5841	825.852170052152	0
7	5846	827.244965953644	0
7	5851	827.979855343169	0
7	5856	829.456822844163	0
7	5861	830.041373753459	0
7	5866	830.203280182401	0
7	5871	831.185490629562	0
7	5878	831.787103306968	0
7	5881	831.909201919575	0
7	5890	833.098052073253	0
7	5893	833.22015068586	0
7	5896	833.342249298467	0
7	5901	834.838702596712	0
7	5906	835.020041939869	0
7	5911	837.102295740497	0
7	5916	837.732909408791	0
7	5921	838.591640857545	0
7	5926	838.979019860656	0
7	5931	839.618111292113	0
7	5936	840.466397962902	0
7	5945	842.137551840367	0
7	5948	842.259650452974	0
7	5951	842.381749065581	0
7	5956	843.822528507056	0
7	5961	844.205209435404	0
7	5966	844.619247560332	0
7	5972	845.079351752796	0
7	5979	847.115319411657	0
7	5982	847.237418024264	0
7	5987	849.508724160923	0
7	5992	849.817129631758	0
7	5997	850.337883977149	0
7	6002	850.693684206261	0
7	6007	851.141663259481	0
7	6012	851.330118533702	0
7	6017	852.293460774049	0
7	6022	852.514100545521	0
7	6027	852.685503720006	0
7	6032	852.957755601359	0
7	6039	853.114650027947	0
7	6042	853.236748640554	0
7	6049	854.091130558448	0
7	6052	854.213229171055	0
7	6057	856.147764615888	0
7	6064	856.743039060108	0
7	6067	856.865137672715	0
7	6072	857.771361262708	0
7	6077	858.460523578132	0
7	6084	859.48233910608	0
7	6087	859.604437718687	0
7	6092	859.831131077847	0
7	6099	860.001530196426	0
7	6104	860.123628809033	0
7	6107	860.24572742164	0
7	6112	860.450798078239	0
7	6117	860.764909694878	0
7	6122	864.838697239138	0
7	6127	865.046335761994	0
7	6132	866.151157002085	0
7	6137	866.472690313378	0
7	6144	866.904488078834	0
7	6147	867.026586691441	0
7	6152	867.188491746722	0
7	6157	869.808298870968	0
7	6164	871.621132104815	0
7	6167	871.743230717422	0
7	6172	872.139081207741	0
7	6177	872.31830993382	0
7	6182	872.56757610252	0
7	6187	873.059792253748	0
7	6192	873.360621523368	0
7	6197	874.472310880885	0
7	6202	876.950633861756	0
7	6207	877.084937947372	0
7	6212	878.149820078318	0
7	6217	879.614327433811	0
7	6224	879.775602780751	0
7	6227	879.897701393358	0
7	6232	880.389779017284	0
7	6237	881.844825662906	0
7	6242	884.543311659777	0
7	6247	885.829786581391	0
7	6252	886.176247797582	0
7	6257	886.724819027166	0
7	6262	887.08331997132	0
7	6267	887.41091832664	0
7	6272	887.810872030437	0
7	6279	888.395457092921	0
7	6286	888.517555705528	0
7	6289	888.639654318135	0
7	6292	888.761752930742	0
7	6299	888.905897615614	0
7	6302	889.027996228221	0
7	6307	892.779000374208	0
7	6312	893.331947493262	0
7	6317	895.313818341767	0
7	6323	895.625520184673	0
7	6328	896.573592660654	0
7	6333	897.086617326547	0
7	6338	897.226000134878	0
7	6343	898.132648468185	0
7	6348	898.945480821422	0
7	6355	900.188237397209	0
7	6358	900.310336009816	0
7	6363	901.493689960694	0
7	6368	902.506870537161	0
7	6373	903.073836561798	0
7	6378	904.874641437787	0
7	6385	906.728152392259	0
7	6388	906.850251004866	0
7	6393	907.436098376671	0
7	6398	909.857134882339	0
7	6405	911.527641408466	0
7	6408	911.649740021073	0
7	6413	911.911605427842	0
7	6418	912.823322901549	0
7	6423	913.791298293893	0
7	6428	914.023410445537	0
7	6433	914.338475846678	0
7	6440	915.151029146354	0
7	6443	915.273127758961	0
7	6448	915.692106923679	0
7	6453	916.68493546927	0
7	6458	916.95274362944	0
7	6463	917.721567919161	0
7	6468	918.387405844735	0
7	6475	919.05206843974	0
7	6478	919.174167052347	0
7	6483	919.931703665099	0
7	6488	920.894384353109	0
7	6493	922.026642982838	0
7	6502	923.345437947018	0
7	6505	923.467536559625	0
7	6508	923.589635172232	0
7	6513	923.922697675202	0
7	6518	925.743835290612	0
7	6525	926.339582475732	0
7	6528	926.461681088339	0
7	6535	928.511554434333	0
7	6538	928.63365304694	0
7	6543	928.765845517636	0
7	6548	929.443850282998	0
7	6553	931.632378281047	0
7	6558	931.860323620996	0
7	6563	932.455657479812	0
7	6568	933.459540266687	0
7	6573	934.316318972227	0
7	6578	935.071277935855	0
7	6583	935.59315607986	0
7	6590	936.477573938864	0
7	6593	936.599672551471	0
7	6598	937.470513419229	0
7	6603	937.71154657228	0
7	6608	938.446141355897	0
7	6613	938.993846342998	0
7	6618	941.371752080663	0
7	6623	941.57493922431	0
7	6628	943.097328526867	0
7	6633	943.359178920578	0
7	6638	943.862437780536	0
7	6643	944.051124343597	0
7	6648	945.408537356085	0
7	6653	945.868897891077	0
7	6658	947.102927262271	0
7	6665	947.932219006938	0
7	6668	948.054317619545	0
7	6674	948.447539032023	0
7	6679	949.324775886202	0
7	6684	949.843255097459	0
7	6689	950.043379974976	0
7	6694	950.986193156249	0
7	6699	951.766333662824	0
7	6704	953.29016396677	0
7	6709	954.029960586199	0
7	6716	954.420815931755	0
7	6719	954.542914544362	0
7	6724	956.860994766473	0
7	6729	957.409205241661	0
7	6734	958.377464641284	0
7	6739	959.633556839283	0
7	6744	960.667051785162	0
7	6749	961.11614886175	0
7	6754	961.61421203364	0
7	6759	962.183011108518	0
7	6764	962.872900246105	0
7	6769	964.227718408999	0
7	6774	964.379877347179	0
7	6779	966.001359090466	0
7	6784	967.644975182507	0
7	6789	968.034069553768	0
7	6794	968.225482961557	0
7	6799	969.961467631284	0
7	6804	971.016078738259	0
7	6809	971.525514271812	0
7	6814	972.017446200632	0
7	6821	972.312633575039	0
7	6824	972.434732187646	0
7	6829	973.598518725593	0
7	6834	974.236745010294	0
7	6839	975.007077300113	0
7	6846	975.902742862649	0
7	6849	976.024841475256	0
7	6854	978.058536293678	0
7	6859	978.474135358275	0
7	6864	978.655336341593	0
7	6871	980.180807958468	0
7	6874	980.302906571075	0
7	6881	980.932023650491	0
7	6884	981.054122263098	0
7	6889	981.848510829974	0
7	6896	983.110901118456	0
7	6899	983.232999731063	0
7	6904	983.866783837673	0
7	6909	986.299410169516	0
7	6914	987.471844574522	0
7	6919	988.371840949526	0
7	6924	988.614191753826	0
7	6929	989.04260673209	0
7	6934	989.828735250453	0
7	6939	990.04198546725	0
7	6944	990.751578553725	0
7	6949	992.138772996428	0
7	6954	992.639826301688	0
7	6959	993.590439147145	0
7	6964	993.763820100814	0
7	6969	994.034512073266	0
7	6974	994.312882640374	0
7	6979	994.620807253581	0
7	6984	994.857327996903	0
7	6989	996.177858519661	0
7	6994	997.270593662849	0
7	6999	998.011353956548	0
7	7004	998.333755960701	0
7	7009	998.742563238975	0
7	7014	999.071656979854	0
7	7019	999.76354534101	0
8	46	6.844696119424	0.063328552179
8	61	9.59674902257	0.025517288705
8	76	10.931477648343	0.000817655345
8	106	13.434791955216	0.015431429629
8	116	15.778864083703	0.093012996327
8	161	24.538288239967	0.062771992389
8	201	29.002901083423	0.10224527402
8	231	34.031970083939	0.044218493211
8	276	41.137664262487	0.007983868633
8	301	43.958571333675	0.04255126715
8	306	44.080669946282	0.018762247944
8	311	44.202768558889	0.01418625449
8	357	48.604456631489	0.001784884987
8	362	48.726555244096	0.049273011172
8	382	51.636534958861	0.032579676118
8	397	53.290831467993	0.075024553029
8	407	54.236294087426	0.034700733639
8	462	61.033237853644	0.095649712399
8	482	65.160289100427	0.042947209816
8	497	67.687512495547	0.011162454943
8	532	70.975498796658	0.003033671038
8	547	72.916304065077	0.021448151967
8	552	73.038402677684	0.019545083318
8	587	78.88119251287	0.100671749907
8	602	81.317164132679	0.07902274973
8	763	107.456380134198	0.049699358564
8	768	107.578478746805	0.008522318229
8	773	107.700577359412	0.101087419
8	783	108.234737870698	0.042639698086
8	805	110.457250834195	0.109146540334
8	810	110.579349446802	0.23013162637
8	813	110.701448059409	0.190825415207
8	818	110.823546672016	0.014678604196
8	823	110.945645284623	0.035495402185
8	828	111.06774389723	0.110223656524
8	833	111.189842509837	0.024431474576
8	900	122.578337027365	0.042545642558
8	903	122.700435639972	0.162710769988
8	908	122.822534252579	0.084513291206
8	935	126.651360897756	0.094475086904
8	938	126.773459510363	0.173388945064
8	1003	135.840135607997	0.049551605897
8	1013	136.241406703511	0.034281692574
8	1057	142.716335501839	0.193995310906
8	1059	142.838434114446	0.232081801496
8	1069	143.250433608022	0.045955285852
8	1074	143.372532220629	0.00596621363
8	1171	164.510105683256	0.057819387409
8	1174	164.632204295863	0.149361044282
8	1204	169.783848419687	0.001796932298
8	1209	169.905947032294	0.034984411363
8	1214	170.028045644901	0.026241514111
8	1314	186.353783312725	0.095339501878
8	1344	191.583935723171	0.018597242702
8	1374	198.894473883392	0.010192093587
8	1408	206.265744436498	0.160887457862
8	1410	206.387843049105	0.274466307976
8	1430	209.985615225797	0.056013055351
8	1520	226.095650750105	0.066627122766
8	1535	227.700110366182	0.097917674111
8	1600	242.074269435937	0.024739779837
8	1635	246.495008138729	0.034593653038
8	1665	250.488115272314	0.062039359184
8	1690	254.625640663858	0.081286720865
8	1730	260.110307154168	0.114522377168
8	1761	265.936163950095	0.044928666199
8	1766	266.058262562702	0.004780008504
8	1846	280.950251396752	0.049641277562
8	1861	283.201611476743	0.002983496108
8	1931	292.325445946926	0.120149104271
8	1986	302.15492912413	0.104250160536
8	2003	304.202532048932	0.072328945933
8	2006	304.324630661539	0.158442467524
8	2011	304.446729274146	0.089258694164
8	2036	305.982345952372	0.090941936964
8	2051	306.515966680403	0.099960391486
8	2066	307.454157098506	0.051348412522
8	2112	313.656396854694	0.097906154618
8	2117	313.778495467301	0.02124823728
8	2129	315.152434113039	0.066854699284
8	2132	315.274532725646	0.131294445058
8	2137	315.396631338253	0.089030821694
8	2157	317.343470959082	0.027707933272
8	2247	331.551234234769	0.027676600875
8	2267	333.947504342044	0.067501114031
8	2352	348.528406340206	0.100324402359
8	2387	354.131497230118	0.038133644001
8	2397	354.494047707249	0.052865935651
8	2402	354.616146319856	0.018043799854
8	2498	370.905478231887	0.115975967357
8	2518	372.296030266423	0.095109743894
8	2543	375.154626096288	0.07088173167
8	2548	375.276724708895	0.066911646225
8	2568	378.733907329532	0.046717855305
8	2598	380.875962205045	0.113021154889
8	2623	383.033960663748	0.087374209892
8	2693	392.822576949436	0.087008627552
8	2718	395.900071815348	0.059445142723
8	2758	401.847597843415	0.057403994907
8	2763	401.969696456022	0.036401954739
8	2844	411.137368065366	0.090580390899
8	2864	413.138261350275	0.120104695303
8	2889	416.847576414741	0.03944574312
8	2909	419.155176613751	0.061970130201
8	3099	446.547110054828	0.106986849689
8	3154	455.506072551548	0.07775088492
8	3165	456.216666909453	0.093866693501
8	3175	457.547230077954	0.117833709976
8	3200	462.48793568898	0.038580010182
8	3260	471.838282740192	0.07017367474
8	3297	479.204780184837	0.112104399334
8	3300	479.326878797444	0.205098949982
8	3315	480.664204720179	0.024943119775
8	3325	481.02456111833	0.075177726233
8	3350	484.97819744551	0.046228046378
8	3380	490.214184443787	0.062993997795
8	3430	496.503745093624	0.108145724614
8	3440	498.034860520137	0.112742114584
8	3505	509.991515940422	0.039985148085
8	3516	512.330827917821	0.095978048671
8	3561	518.588808218068	0.112071436089
8	3576	520.818898399028	0.116326118596
8	3628	526.129987797046	0.108807976057
8	3631	526.252086409653	0.137425987771
8	3656	529.940176267865	0.053906962312
8	3671	531.731166231342	0.011802341705
8	3681	532.55092386861	0.061946962405
8	3726	541.00338387067	0.035069322285
8	3766	545.423712398466	0.080081616248
8	3776	547.49616372415	0.019435846958
8	3856	557.723097686001	0.10611814403
8	3867	558.496591841633	0.010744623381
8	3892	561.824146160148	0.076948968062
8	3902	562.16396071247	0.058176294762
8	3912	563.894461042807	0.049974831586
8	3947	568.754643585369	0.020398658233
8	3962	570.297336309329	0.018938627535
8	3987	573.262233606508	0.081168356055
8	3992	573.384332219115	0.087976939585
8	3997	573.506430831722	0.036563085484
8	4027	578.56188101353	0.049474484282
8	4037	580.418220356044	0.100766706654
8	4047	580.811162674243	0.078477119033
8	4067	583.007535256074	0.026171089973
8	4072	583.129633868681	0.098285650399
8	4092	586.907261806003	0.027621051036
8	4097	587.02936041861	0.002703312263
8	4122	591.811184474517	0.06205206068
8	4142	593.7404082398	0.024381455324
8	4154	594.416429414048	0.057440949087
8	4157	594.538528026655	0.16099450599
8	4197	604.375548055149	0.068897938544
8	4214	605.860651504217	0.221764419542
8	4223	606.320860970297	0.0940196155
8	4238	607.453143457189	0.030394904795
8	4253	609.203923543567	0.09181730663
8	4258	609.326022156174	0.039131629063
8	4275	610.970473046452	0.08563710069
8	4278	611.092571659059	0.127778496688
8	4343	623.875597244678	0.024470096501
8	4353	626.852332034698	0.012209826681
8	4370	628.152013293214	0.053558062777
8	4373	628.274111905821	0.154187590342
8	4388	629.538820926162	0.104166708725
8	4413	633.399496516722	0.031401813085
8	4438	636.878914809418	0.087328351066
8	4463	639.174201962299	0.041620116018
8	4490	640.816297249576	0.053938963672
8	4493	640.938395862183	0.159872786924
8	4498	641.06049447479	0.048097687618
8	4565	649.993248732006	0.142943703401
8	4609	656.364377452716	0.014843755646
8	4679	675.224347526069	0.014853190928
8	4714	681.122509662797	0.06769035481
8	4764	687.217628453958	0.076481923922
8	4774	688.891547914215	0.024125168138
8	4839	700.160312569794	0.019265154952
8	4859	703.988448800041	0.088937980572
8	4869	705.07062635432	0.107253261071
8	4874	705.192724966927	0.067223419927
8	4888	705.648364698709	0.089138157769
8	4893	705.770463311316	0.20301049788
8	4896	705.892561923923	0.284529026214
8	4899	706.01466053653	0.266065273222
8	4918	707.37489956864	0.129334338599
8	4920	707.496998181247	0.221601899162
8	4945	710.399186795268	0.037298028615
8	4975	713.41040906283	0.075124099971
8	4985	713.72934573768	0.086738413308
8	4992	713.851444350287	0.092693352289
8	4995	713.973542962894	0.157982885746
8	5010	714.955968524528	0.109346497796
8	5035	718.29043565906	0.05236014378
8	5060	721.222692572835	0.03730433889
8	5065	721.344791185442	0.056893797032
8	5070	721.466889798049	0.029903046079
8	5090	723.078410079599	0.005403799312
8	5125	730.227495710894	0.023655872948
8	5140	730.640636293003	0.093882268435
8	5170	736.050494199186	0.057965468087
8	5202	738.7964793811	0.014428471703
8	5205	738.918577993707	0.122261426033
8	5271	754.009755169521	0.073899408962
8	5351	766.035168081222	0.067890059213
8	5356	766.157266693829	0.058591446547
8	5371	767.078048385638	0.036381890769
8	5391	768.524383337047	0.087061376837
8	5426	772.331211447343	0.092850829843
8	5491	781.903650805883	0.121282748481
8	5496	782.02574941849	0.059167043591
8	5501	782.147848031097	0.103329530011
8	5536	786.930650452861	0.113220104193
8	5591	792.959203545823	0.102032326433
8	5618	796.229046959455	0.207455204221
8	5647	800.167997763049	0.089151319041
8	5702	807.989882090213	0.023866498668
8	5757	813.160630340187	0.005262009492
8	5762	813.282728952794	0.100104923792
8	5877	831.787103306968	0.116011431925
8	5889	833.098052073253	0.066189167351
8	5892	833.22015068586	0.184188899466
8	5944	842.137551840367	0.097587074619
8	5947	842.259650452974	0.207293826628
8	5978	847.115319411657	0.024821459422
8	6038	853.114650027947	0.073847358827
8	6048	854.091130558448	0.064964648928
8	6063	856.743039060108	0.086211443864
8	6083	859.48233910608	0.050531471065
8	6098	860.001530196426	0.087878396099
8	6103	860.123628809033	0.073378556241
8	6143	866.904488078834	0.116078307985
8	6163	871.621132104815	0.079483532612
8	6223	879.775602780751	0.056345525058
8	6278	888.395457092921	0.116909687182
8	6285	888.517555705528	0.08165917209
8	6288	888.639654318135	0.126115528791
8	6298	888.905897615614	0.02368810505
8	6354	900.188237397209	0.046335373117
8	6384	906.728152392259	0.118338481869
8	6404	911.527641408466	0.085945545425
8	6439	915.151029146354	0.025580795375
8	6474	919.05206843974	0.099886515345
8	6501	923.345437947018	0.1215582871
8	6504	923.467536559625	0.195008889676
8	6524	926.339582475732	0.106309736345
8	6534	928.511554434333	0.007931121468
8	6589	936.477573938864	0.00430438414
8	6664	947.932219006938	0.107959005989
8	6715	954.420815931755	0.101069945326
8	6820	972.312633575039	0.019343713588
8	6845	975.902742862649	0.026058192693
8	6870	980.180807958468	0.049688557425
8	6880	980.932023650491	0.121021879088
8	6895	983.110901118456	0.027960475447

