version 2
run General-117-20240201-11:04:19-40057
attr configname General
attr datetime 20240201-11:04:19
attr experiment General
attr inifile main.ini
attr iterationvars "$0=2.0, $1=3.5, $2=70"
attr iterationvarsf 2.0,3.5,70-
attr measurement "$0=2.0, $1=3.5, $2=70"
attr network Rete
attr processid 40057
attr repetition 17
attr replication #17
attr resultdir results
attr runnumber 117
attr seedset 117
param Rete.lambda 2.0
param Rete.a 0.3s
param Rete.b 3.5s
param Rete.c 0.1s
param Rete.d 0.3s
param Rete.mu 3.0
param Rete.source2.interArrivalTime exponential(1s/lambda)
param Rete.source2.jobServiceTime exponential(1s/mu)
param Rete.source2.deadline uniform(a,b)
param Rete.server2.j 70
param Rete.server2.V uniform(c,d)

vector 0 Rete.passiveQueue queueLength:vector ETV
attr interpolationmode sample-hold
attr title "queue length, vector"
vector 1 Rete.sink lifeTime:vector ETV
attr interpolationmode none
attr title "lifetime of arrived jobs, vector"
attr unit s
vector 2 Rete.sink totalQueueingTime:vector ETV
attr interpolationmode none
attr title "the total time spent in queues by arrived jobs, vector"
attr unit s
vector 3 Rete.sink queuesVisited:vector ETV
attr interpolationmode none
attr title "the total number of queues visited by arrived jobs, vector"
vector 4 Rete.sink totalServiceTime:vector ETV
attr interpolationmode none
attr title "the total time spent  by arrived jobs, vector"
attr unit s
vector 5 Rete.sink totalDelayTime:vector ETV
attr interpolationmode none
attr title "the total time spent in delay nodes by arrived jobs, vector"
attr unit s
vector 6 Rete.sink delaysVisited:vector ETV
attr interpolationmode none
attr title "the total number of delays visited by arrived jobs, vector"
vector 7 Rete.sink generation:vector ETV
attr interpolationmode none
attr title "the generation of the arrived jobs, vector"
vector 8 Rete.passiveQueue queueingTime:vector ETV
attr interpolationmode none
attr title "queueing time at dequeue, vector"
attr unit s
0	0	0	0
0	10	0.527604451682	1
0	11	0.550084476542	0
0	20	1.631120763053	1
0	21	1.728911138082	0
0	25	1.734290766867	1
0	26	1.847485372559	0
0	45	5.853872007116	1
0	46	5.949213647579	0
0	65	7.55765775382	1
0	66	7.630279897789	0
0	75	9.395743943548	1
0	76	9.438471473638	0
0	145	22.386459223285	1
0	146	22.423248554825	0
0	150	22.4521632941	1
0	151	22.541822789302	0
0	180	25.0058248442	1
0	182	25.019712890101	2
0	183	25.104715021253	1
0	186	25.22328925573	0
0	195	25.974431854206	1
0	197	26.041859290183	2
0	199	26.052909451713	3
0	200	26.077618037893	2
0	203	26.19619227237	1
0	206	26.314766506847	0
0	225	27.581721225607	1
0	226	27.659947125775	0
0	240	29.886585315338	1
0	241	29.948312219757	0
0	250	31.712418257244	1
0	251	31.772724058885	0
0	340	43.22494303432	1
0	342	43.278578927689	2
0	343	43.309550043959	1
0	346	43.428124278436	0
0	350	43.460287383969	1
0	352	43.476859987881	2
0	354	43.543659221579	3
0	357	43.654539734203	2
0	359	43.77311396868	1
0	362	43.891688203157	0
0	386	45.390032889521	1
0	388	45.471976517762	2
0	389	45.478171048861	1
0	392	45.596745283338	0
0	396	45.66554582937	1
0	397	45.715319517815	0
0	401	45.734079401486	1
0	402	45.833893752292	0
0	426	49.105155927635	1
0	427	49.187031310743	0
0	441	49.958803504295	1
0	442	50.059922316916	0
0	476	55.776851287272	1
0	477	55.797276319461	0
0	526	60.644431019971	1
0	527	60.659151423449	0
0	541	62.793074111131	1
0	542	62.873583687642	0
0	606	69.697204529434	1
0	607	69.779597342632	0
0	611	69.789260750534	1
0	612	69.898171577109	0
0	681	79.02258818466	1
0	682	79.080765746801	0
0	701	80.30229459001	1
0	704	80.436902254629	0
0	717	81.33110490388	1
0	718	81.371081564437	0
0	742	83.076798027407	1
0	743	83.109116831435	0
0	777	87.789012080744	1
0	778	87.853591597472	0
0	782	87.930886538771	1
0	783	87.972165831949	0
0	807	91.623457670269	1
0	808	91.719896555423	0
0	847	96.281415758227	1
0	848	96.389025658351	0
0	852	96.485016519382	1
0	853	96.507599892828	0
0	912	106.106378704835	1
0	913	106.143898606457	0
0	972	114.750207926361	1
0	973	114.866119434553	0
0	982	116.028115345196	1
0	983	116.070321024682	0
0	987	116.108661103703	1
0	988	116.188895259159	0
0	992	116.216732288452	1
0	993	116.307469493636	0
0	1052	120.633226813759	1
0	1055	120.832513747997	0
0	1063	121.818943714014	1
0	1064	121.902808532511	0
0	1073	122.169962652602	1
0	1074	122.212183558318	0
0	1088	123.323330662332	1
0	1090	123.326923954285	2
0	1091	123.350820640962	1
0	1094	123.469394875439	0
0	1113	124.829293900185	1
0	1114	124.859245008959	0
0	1118	124.947757538339	1
0	1120	124.962313228304	2
0	1121	124.977819243436	1
0	1124	125.096393477913	0
0	1158	132.803820882234	1
0	1159	132.880085092534	0
0	1173	134.357132117047	1
0	1174	134.389490007773	0
0	1203	137.64833556069	1
0	1204	137.655619455849	0
0	1208	137.674792838001	1
0	1209	137.774193690326	0
0	1228	139.980348843774	1
0	1229	140.009077074538	0
0	1233	140.043888983712	1
0	1234	140.127651309015	0
0	1258	144.740565690406	1
0	1259	144.797868739499	0
0	1283	146.895936688329	1
0	1285	146.922611084898	2
0	1286	146.988775844327	1
0	1289	147.107350078804	0
0	1303	147.692962117633	1
0	1304	147.798589367057	0
0	1313	148.245036706215	1
0	1314	148.338201096738	0
0	1343	153.123619053284	1
0	1344	153.194627104484	0
0	1353	153.744410231425	1
0	1354	153.794930760792	0
0	1398	159.369840186849	1
0	1400	159.426216732938	2
0	1401	159.484231342013	1
0	1406	159.71064679778	0
0	1409	159.769661273473	1
0	1410	159.829221032257	0
0	1439	162.611643851093	1
0	1441	162.653761521812	2
0	1442	162.68006242782	1
0	1445	162.798636662297	0
0	1479	168.333384215939	1
0	1480	168.395999492328	0
0	1484	168.406102138869	1
0	1485	168.514573726805	0
0	1509	170.920004171633	1
0	1510	170.939190904987	0
0	1519	171.74225260765	1
0	1520	171.771035751943	0
0	1529	172.555785570615	1
0	1530	172.575440743531	0
0	1534	172.577309941791	1
0	1535	172.694014978008	0
0	1564	176.251658738039	1
0	1565	176.362333522798	0
0	1569	176.363204049672	1
0	1570	176.480907757275	0
0	1584	177.106597583923	1
0	1585	177.148303017605	0
0	1589	177.182480322129	1
0	1590	177.266877252082	0
0	1604	177.654014023804	1
0	1605	177.722328723948	0
0	1619	179.955214544062	1
0	1620	180.001071091766	0
0	1644	181.463963006655	1
0	1645	181.565790621647	0
0	1654	181.881983513946	1
0	1655	181.941725123413	0
0	1664	182.309827752993	1
0	1665	182.373206353867	0
0	1669	182.41307029187	1
0	1670	182.491780588344	0
0	1674	182.499332584728	1
0	1675	182.610354822821	0
0	1709	186.33017250346	1
0	1710	186.393714105861	0
0	1724	187.825712119595	1
0	1725	187.837716445436	0
0	1749	190.792325071316	1
0	1750	190.895919241527	0
0	1760	191.360112502747	1
0	1761	191.37259630901	0
0	1765	191.449202791491	1
0	1766	191.491170543487	0
0	1795	194.084234438095	1
0	1797	194.123535781283	2
0	1798	194.180446165544	1
0	1801	194.299020400021	0
0	1810	194.645095875695	1
0	1811	194.733882432741	0
0	1840	197.845937805997	1
0	1841	197.95903130112	0
0	1850	198.47797501439	1
0	1851	198.54279372642	0
0	1865	199.372907090876	1
0	1866	199.386633351403	0
0	1895	201.730230115851	1
0	1896	201.768595043476	0
0	1925	204.118324408607	1
0	1926	204.23472166648	0
0	1930	204.279205032188	1
0	1931	204.353295900957	0
0	1945	206.072438960634	1
0	1946	206.186075014548	0
0	1955	206.572360524484	1
0	1956	206.596954010394	0
0	1985	208.768712933912	1
0	1986	208.871632556939	0
0	2005	211.772512521344	1
0	2006	211.861777659474	0
0	2015	212.159215851656	1
0	2016	212.207301086468	0
0	2030	212.810743297509	1
0	2031	212.870174427435	0
0	2040	213.47356269492	1
0	2041	213.478740889786	0
0	2045	213.48009833456	1
0	2047	213.481965533174	2
0	2048	213.597315124263	1
0	2052	213.707093207995	2
0	2053	213.71588935874	1
0	2056	213.834463593217	0
0	2166	225.782771310598	1
0	2167	225.847096759094	0
0	2206	229.0663631809	1
0	2207	229.138850492767	0
0	2226	230.779887879827	1
0	2227	230.824460752474	0
0	2231	230.855569412891	1
0	2232	230.943034986951	0
0	2246	232.004196792633	1
0	2247	232.066168591596	0
0	2251	232.112626957966	1
0	2252	232.184742826073	0
0	2266	234.103238600497	1
0	2267	234.111795135642	0
0	2271	234.184399529331	1
0	2272	234.230369370119	0
0	2311	237.960734899948	1
0	2312	238.071480850002	0
0	2321	238.327117540759	1
0	2322	238.408974511181	0
0	2331	239.309505397388	1
0	2333	239.407667904995	2
0	2334	239.418647091442	1
0	2337	239.537221325919	0
0	2341	239.550461198859	1
0	2342	239.655795560396	0
0	2346	239.760063101491	1
0	2347	239.774369794873	0
0	2356	239.989497260869	1
0	2357	240.099009807654	0
0	2381	241.784335708926	1
0	2382	241.866435628442	0
0	2411	245.131314442223	1
0	2412	245.214444655297	0
0	2421	246.460413845492	1
0	2422	246.468475650555	0
0	2456	250.027601524192	1
0	2459	250.220219883341	0
0	2477	251.682780080386	1
0	2478	251.770654979927	0
0	2522	254.917035885885	1
0	2523	254.97759089662	0
0	2542	256.346739215357	1
0	2543	256.445297800413	0
0	2547	256.455077130507	1
0	2548	256.56387203489	0
0	2552	256.640392901158	1
0	2553	256.682446269367	0
0	2557	256.748349115347	1
0	2559	256.768927957483	2
0	2560	256.801020503844	1
0	2563	256.919594738321	0
0	2577	260.226344875439	1
0	2578	260.271782974606	0
0	2627	265.932850972029	1
0	2629	265.981416588403	2
0	2630	266.000069764837	1
0	2634	266.057591345059	2
0	2635	266.118643999314	1
0	2638	266.237218233791	0
0	2702	272.731922228795	1
0	2703	272.846331223674	0
0	2792	282.162813104504	1
0	2793	282.171488708818	0
0	2802	282.568339078589	1
0	2803	282.66197500879	0
0	2807	282.71205358706	1
0	2810	282.888390464557	0
0	2903	290.542190630992	1
0	2904	290.57527047936	0
0	2918	291.535511580172	1
0	2919	291.613594473154	0
0	2928	292.211277580532	1
0	2929	292.238828400301	0
0	2943	293.146033996604	1
0	2944	293.151666805822	0
0	2973	297.297114197821	1
0	2974	297.344635791941	0
0	2983	297.627624229715	1
0	2984	297.662459354399	0
0	3003	300.824811242658	1
0	3004	300.920045838589	0
0	3023	302.68108769688	1
0	3024	302.703667518688	0
0	3058	307.957154561584	1
0	3059	308.040970168152	0
0	3083	310.649992799679	1
0	3084	310.677355232884	0
0	3113	312.370969579669	1
0	3114	312.469760671124	0
0	3123	313.197009148391	1
0	3124	313.255390968239	0
0	3138	314.409533840271	1
0	3139	314.511411605904	0
0	3164	319.908495998818	1
0	3165	320.015543003162	0
0	3169	320.027070817337	1
0	3170	320.134117237639	0
0	3189	321.277503291886	1
0	3190	321.394352592379	0
0	3209	322.714076197723	1
0	3210	322.791932732202	0
0	3224	323.637812079367	1
0	3225	323.662228076991	0
0	3249	325.180077749008	1
0	3250	325.243106423666	0
0	3269	326.531317413023	1
0	3270	326.637777569059	0
0	3279	327.465014922931	1
0	3280	327.539025499261	0
0	3364	333.986232635795	1
0	3365	334.089234366807	0
0	3394	337.640703183885	1
0	3396	337.710651893896	2
0	3398	337.742859160413	3
0	3399	337.751248641031	2
0	3402	337.869822875508	1
0	3405	337.988397109985	0
0	3414	338.275377945979	1
0	3415	338.38578707554	0
0	3419	338.504010438986	1
0	3420	338.504361310017	0
0	3429	339.162758050601	1
0	3430	339.168197777129	0
0	3439	340.087251527061	1
0	3440	340.092789208768	0
0	3459	341.771975518326	1
0	3461	341.778794126371	2
0	3462	341.780529216667	1
0	3465	341.899103451144	0
0	3504	345.731759290222	1
0	3505	345.773141725944	0
0	3520	346.335445734072	1
0	3521	346.355853367275	0
0	3530	348.681894842942	1
0	3531	348.768147531902	0
0	3560	354.628213955043	1
0	3561	354.6479918866	0
0	3590	357.085995521753	1
0	3591	357.202871687243	0
0	3620	358.373690362308	1
0	3621	358.403068145568	0
0	3630	358.893544763525	1
0	3631	358.913159048224	0
0	3665	362.442306123779	1
0	3666	362.482169114149	0
0	3695	365.144980811701	1
0	3696	365.203890245005	0
0	3725	368.462009649067	1
0	3726	368.462380731109	0
0	3790	375.933326649954	1
0	3791	375.978855063916	0
0	3805	377.179993490518	1
0	3806	377.248868109634	0
0	3825	378.693029088033	1
0	3826	378.726194859367	0
0	3835	378.993960424429	1
0	3836	379.067853470647	0
0	3881	383.53414987164	1
0	3882	383.543675767132	0
0	3896	385.217683525816	1
0	3897	385.279829874458	0
0	3916	387.504195381113	1
0	3918	387.558812074637	2
0	3919	387.609666112335	1
0	3922	387.728240346812	0
0	3946	389.329667027999	1
0	3947	389.430820208119	0
0	3961	389.918661493552	1
0	3962	389.941629058259	0
0	4066	403.507866643981	1
0	4067	403.56655764041	0
0	4101	408.182105267558	1
0	4102	408.227502613214	0
0	4126	411.951732334919	1
0	4127	412.051614666837	0
0	4151	414.0410294883	1
0	4152	414.15542202976	0
0	4171	415.723120099848	1
0	4172	415.772333012578	0
0	4181	416.474617162173	1
0	4182	416.482981407099	0
0	4201	418.327977851423	1
0	4202	418.394980851653	0
0	4222	420.738044684237	1
0	4223	420.761058710511	0
0	4272	425.333027893151	1
0	4273	425.403081240861	0
0	4277	425.509178835343	1
0	4278	425.521655475338	0
0	4282	425.56566159899	1
0	4283	425.640229709815	0
0	4317	429.714489821681	1
0	4318	429.80598316059	0
0	4332	431.971665966896	1
0	4333	432.001973985855	0
0	4347	432.884384539197	1
0	4349	432.915512166519	2
0	4350	432.967321556351	1
0	4353	433.085895790828	0
0	4382	435.0364892848	1
0	4383	435.150050159483	0
0	4397	435.752570228276	1
0	4398	435.82190221503	0
0	4447	440.157954519927	1
0	4448	440.259786283213	0
0	4487	443.985052586691	1
0	4488	444.088547175421	0
0	4547	450.043712233444	1
0	4548	450.046740224759	0
0	4568	451.243247951408	1
0	4569	451.262034183799	0
0	4608	455.089084847281	1
0	4610	455.169660099234	2
0	4611	455.194963352918	1
0	4614	455.313537587395	0
0	4623	455.480481279996	1
0	4625	455.516343974795	2
0	4626	455.577456564891	1
0	4629	455.696030799368	0
0	4633	455.712968631124	1
0	4634	455.814605033845	0
0	4658	457.777849471327	1
0	4659	457.849527080488	0
0	4668	458.703791657165	1
0	4669	458.72960689746	0
0	4678	459.088198466018	1
0	4679	459.205495553382	0
0	4693	460.905674173876	1
0	4694	460.992038002044	0
0	4708	463.232720865105	1
0	4709	463.273629521873	0
0	4743	465.945702476331	1
0	4744	466.002375545947	0
0	4753	467.192616023897	1
0	4754	467.295550967001	0
0	4768	467.893263714076	1
0	4769	467.972949774951	0
0	4773	468.083729631857	1
0	4775	468.091336156968	2
0	4776	468.091524009428	1
0	4779	468.210098243905	0
0	4783	468.31198151673	1
0	4784	468.328672478382	0
0	4788	468.426414286748	1
0	4789	468.447246712859	0
0	4798	469.045637740391	1
0	4799	469.103446167587	0
0	4818	470.776354828594	1
0	4819	470.791951269702	0
0	4833	473.086776438105	1
0	4834	473.130365173343	0
0	4838	473.213124400455	1
0	4839	473.24893940782	0
0	4848	474.390896827318	1
0	4850	474.448185508219	2
0	4851	474.451878813711	1
0	4854	474.570453048188	0
0	4883	477.804017280283	1
0	4885	477.811853148876	2
0	4886	477.819372267324	1
0	4889	477.937946501801	0
0	4908	479.592045883313	1
0	4909	479.651165472542	0
0	4934	482.215743438532	1
0	4935	482.270526053858	0
0	5004	486.929329705569	1
0	5005	486.946562069909	0
0	5024	487.989305063517	1
0	5025	488.061826673804	0
0	5114	499.358714081454	1
0	5115	499.4514572115	0
0	5124	500.146065825811	1
0	5125	500.232872483133	0
0	5134	500.906432049645	1
0	5135	500.979945855282	0
0	5149	502.757834964716	1
0	5150	502.760806900702	0
0	5154	502.802004029066	1
0	5155	502.879381135179	0
0	5199	507.726974386671	1
0	5200	507.801884772412	0
0	5209	508.892968046273	1
0	5210	508.961680253238	0
0	5234	511.411318774912	1
0	5235	511.505799306977	0
0	5239	511.509285693566	1
0	5240	511.624373541454	0
0	5244	511.715763993269	1
0	5245	511.742947775931	0
0	5249	511.744603492098	1
0	5250	511.861522010408	0
0	5264	512.468377343636	1
0	5267	512.576565073592	0
0	5295	516.110110935954	1
0	5296	516.168894475125	0
0	5305	516.8000055416	1
0	5306	516.806957692093	0
0	5335	520.365420922243	1
0	5336	520.430422599236	0
0	5380	523.63642323334	1
0	5381	523.727921993586	0
0	5405	525.809165232775	1
0	5406	525.844266489749	0
0	5440	529.213617126951	1
0	5441	529.220027663396	0
0	5445	529.280074708985	1
0	5446	529.338601897873	0
0	5465	530.548881508982	1
0	5466	530.583880226719	0
0	5470	530.655922780515	1
0	5471	530.702454461196	0
0	5475	530.813667076167	1
0	5476	530.821028695673	0
0	5490	533.966182477105	1
0	5491	534.030585135819	0
0	5540	539.669847775579	1
0	5541	539.767889223395	0
0	5550	540.134990832208	1
0	5551	540.247156687583	0
0	5580	543.781064446114	1
0	5581	543.844244925317	0
0	5615	546.48026121294	1
0	5618	546.684262655865	0
0	5711	562.447895258329	1
0	5712	562.566027543074	0
0	5796	571.034965333026	1
0	5797	571.098781692797	0
0	5831	574.171862961336	1
0	5832	574.234236787962	0
0	5861	577.239696840193	1
0	5862	577.333356373219	0
0	5968	587.422115603528	1
0	5969	587.485306536491	0
0	5997	589.737263673769	1
0	5998	589.799926804935	0
0	6067	596.492127583615	1
0	6069	596.557056089854	2
0	6070	596.570896476091	1
0	6073	596.689470710568	0
0	6082	596.881867856326	1
0	6083	596.963341924719	0
0	6087	596.965893720472	1
0	6088	597.081916159196	0
0	6102	598.298723869335	1
0	6103	598.329486706395	0
0	6107	598.365812331964	1
0	6108	598.448060940872	0
0	6132	602.295935652804	1
0	6133	602.340324886164	0
0	6137	602.358318046174	1
0	6138	602.458899120641	0
0	6172	605.162472576542	1
0	6173	605.253889127184	0
0	6187	605.770141863292	1
0	6188	605.865492511065	0
0	6252	611.980652258046	1
0	6254	611.991082177161	2
0	6255	611.99978765285	1
0	6258	612.118361887327	0
0	6262	612.131731014053	1
0	6263	612.236936121804	0
0	6272	612.785240882186	1
0	6273	612.854551044744	0
0	6302	616.021770035943	1
0	6303	616.109225805531	0
0	6312	616.562232453085	1
0	6313	616.593941389806	0
0	6328	619.263337731623	1
0	6329	619.308339760386	0
0	6348	622.041584982005	1
0	6349	622.081032760856	0
0	6428	630.152366080382	1
0	6429	630.221573496658	0
0	6438	630.997322290184	1
0	6440	631.09136268319	2
0	6441	631.101858838367	1
0	6444	631.220433072844	0
0	6448	631.258997783458	1
0	6449	631.339007307321	0
0	6478	634.75334497157	1
0	6479	634.799949587691	0
0	6558	646.029688801434	1
0	6559	646.072437786396	0
0	6588	648.846916685936	1
0	6589	648.964994637009	0
0	6628	653.749606491929	1
0	6629	653.85965222331	0
0	6663	658.918723673644	1
0	6664	659.02154349544	0
0	6668	659.109997100577	1
0	6671	659.247958951207	0
0	6694	660.881618805406	1
0	6695	660.941536255245	0
0	6729	665.941366041828	1
0	6730	666.045891472355	0
0	6739	666.186730803249	1
0	6740	666.29527105061	0
0	6754	667.247147919072	1
0	6756	667.251653351264	2
0	6757	667.330456198225	1
0	6760	667.449030432702	0
0	6774	668.199067837559	1
0	6775	668.253719275302	0
0	6829	675.161509772343	1
0	6830	675.184951447951	0
0	6889	682.824188727304	1
0	6891	682.834260841149	2
0	6893	682.841921563731	3
0	6894	682.905771775946	2
0	6898	682.994986050846	3
0	6899	683.024346010423	2
0	6902	683.1429202449	1
0	6905	683.261494479377	0
0	6909	683.374537647526	1
0	6910	683.380068713854	0
0	6914	683.413713585642	1
0	6915	683.498642948331	0
0	6954	688.186450433773	1
0	6955	688.247637528614	0
0	6984	690.988746108798	1
0	6985	691.030032462649	0
0	6999	692.084341614778	1
0	7000	692.15730500485	0
0	7030	694.761877606065	1
0	7032	694.782730144738	2
0	7033	694.848036199591	1
0	7036	694.966610434068	0
0	7055	696.648933731962	1
0	7056	696.726047127744	0
0	7075	698.2629569393	1
0	7076	698.297985760283	0
0	7095	700.566800982357	1
0	7096	700.575651014283	0
0	7105	700.991166069714	1
0	7107	700.995462472166	2
0	7108	701.098862811664	1
0	7112	701.102220658413	2
0	7113	701.217437046141	1
0	7117	701.327309793218	2
0	7118	701.336011280618	1
0	7122	701.382703129067	2
0	7123	701.454585515095	1
0	7126	701.573159749572	0
0	7135	702.220749402872	1
0	7136	702.229180214354	0
0	7195	708.301740945181	1
0	7196	708.339756820392	0
0	7220	711.041910668885	1
0	7221	711.050432634251	0
0	7235	712.447247169872	1
0	7237	712.447752422975	2
0	7238	712.493085942581	1
0	7241	712.611660177058	0
0	7255	714.210747979978	1
0	7256	714.316058852452	0
0	7310	719.13655834396	1
0	7311	719.200904064854	0
0	7340	722.08621298959	1
0	7341	722.18576344199	0
0	7360	724.657685602343	1
0	7361	724.727122082351	0
0	7386	727.140337250974	1
0	7388	727.184759026585	2
0	7389	727.203435646463	1
0	7393	727.300512265697	2
0	7394	727.32200988094	1
0	7397	727.440584115417	0
0	7421	729.37291196625	1
0	7423	729.427233377571	2
0	7424	729.475869979271	1
0	7427	729.594444213748	0
0	7481	735.097589438633	1
0	7482	735.194463890656	0
0	7501	736.14185939935	1
0	7502	736.254988431661	0
0	7521	737.147861271779	1
0	7522	737.215219846329	0
0	7571	742.774558671103	1
0	7573	742.78008883388	2
0	7574	742.889895709483	1
0	7577	743.00846994396	0
0	7601	745.05366050915	1
0	7602	745.105463835207	0
0	7611	745.503699617142	1
0	7612	745.602616554684	0
0	7631	747.275711565923	1
0	7632	747.362467362269	0
0	7636	747.472806844659	1
0	7637	747.481041596746	0
0	7651	748.077513356192	1
0	7652	748.145399545705	0
0	7656	748.15410490133	1
0	7657	748.263973780182	0
0	7711	756.020938151776	1
0	7712	756.02526633269	0
0	7757	760.556225304688	1
0	7758	760.663999933119	0
0	7772	761.104974405768	1
0	7773	761.185322561645	0
0	7777	761.290637134871	1
0	7778	761.303896796122	0
0	7832	766.377201471534	1
0	7833	766.440732526112	0
0	7837	766.465075486873	1
0	7838	766.559306760589	0
0	7847	767.008419901068	1
0	7848	767.104016912674	0
0	7862	767.814810015625	1
0	7863	767.848776832781	0
0	7877	769.821563539115	1
0	7878	769.822756395859	0
0	8002	781.499835235876	1
0	8003	781.565960651673	0
0	8042	786.078156541104	1
0	8044	786.082635601716	2
0	8045	786.153850120006	1
0	8048	786.272424354483	0
0	8098	789.725821464825	1
0	8099	789.747709878654	0
0	8113	790.721013421407	1
0	8114	790.774092036549	0
0	8118	790.799619561396	1
0	8120	790.80248666658	2
0	8121	790.892666271026	1
0	8124	791.011240505503	0
0	8148	792.638278533628	1
0	8149	792.71078012462	0
0	8168	794.964325845515	1
0	8169	795.007810484916	0
0	8188	795.77392920918	1
0	8189	795.859908799044	0
0	8203	796.43120306046	1
0	8204	796.499594026266	0
0	8223	797.752353326123	1
0	8224	797.79343428924	0
0	8278	804.728665938707	1
0	8279	804.729358610951	0
0	8283	804.76031005105	1
0	8284	804.847932845428	0
0	8288	804.879243817511	1
0	8289	804.966507079905	0
0	8293	805.050482270468	1
0	8294	805.085081314382	0
0	8318	807.79364453999	1
0	8319	807.837860860818	0
0	8323	807.864049505588	1
0	8324	807.956435095295	0
0	8338	809.687628425443	1
0	8339	809.801637628243	0
0	8343	809.899429158426	1
0	8344	809.92021186272	0
0	8353	810.169563277832	1
0	8355	810.182593238103	2
0	8356	810.209043899216	1
0	8359	810.327618133693	0
0	8363	810.412155135604	1
0	8364	810.44619236817	0
0	8378	810.793697864922	1
0	8379	810.834726272412	0
0	8449	818.066685564746	1
0	8450	818.118402110113	0
0	8469	820.508316442901	1
0	8471	820.548163148604	2
0	8472	820.600334979738	1
0	8476	820.647808864692	2
0	8477	820.718909214215	1
0	8480	820.837483448692	0
0	8544	828.058211664893	1
0	8545	828.175081146509	0
0	8599	833.801789604599	1
0	8600	833.847267516561	0
0	8609	834.140681973095	1
0	8610	834.224130490294	0
0	8624	836.394795524852	1
0	8625	836.500035403498	0
0	8629	836.515486662634	1
0	8630	836.618609637975	0
0	8669	841.586348934071	1
0	8670	841.675965956199	0
0	8674	841.683866810968	1
0	8675	841.794540190676	0
0	8689	843.262571691652	1
0	8690	843.274151165104	0
0	8764	853.093457405588	1
0	8765	853.209112949697	0
0	8769	853.28813720986	1
0	8770	853.327687184174	0
0	8785	854.704459242158	1
0	8786	854.720531201224	0
0	8830	860.988417938358	1
0	8832	861.004949861178	2
0	8833	861.038577017103	1
0	8836	861.15715125158	0
0	8865	865.757667148557	1
0	8866	865.85939216839	0
0	8875	866.111209132144	1
0	8877	866.188897817179	2
0	8878	866.20227698072	1
0	8882	866.256378026886	2
0	8884	866.270549808808	3
0	8886	866.305393930745	4
0	8887	866.320851215197	3
0	8890	866.439425449674	2
0	8893	866.557999684151	1
0	8897	866.670272009198	2
0	8898	866.676573918628	1
0	8901	866.795148153105	0
0	8920	868.103397769284	1
0	8921	868.200877124551	0
0	8925	868.230101011002	1
0	8926	868.319451359028	0
0	8950	870.011769689599	1
0	8951	870.02297038096	0
0	8955	870.059943694901	1
0	8956	870.141544615437	0
0	8995	873.72625479086	1
0	8996	873.777856746814	0
0	9055	880.045729509868	1
0	9056	880.108253730638	0
0	9075	881.07001530176	1
0	9076	881.122640858228	0
0	9127	885.110790545655	1
0	9128	885.218026746602	0
0	9141	886.369163063918	1
0	9142	886.377760741286	0
0	9146	886.404536975576	1
0	9147	886.496334975763	0
0	9201	891.650492964089	1
0	9202	891.765189880868	0
0	9211	892.153650123297	1
0	9212	892.256589688133	0
0	9221	892.997533828959	1
0	9222	893.065331725682	0
0	9236	893.886903336356	1
0	9237	893.92552587761	0
0	9266	895.701284134748	1
0	9267	895.748622170169	0
0	9301	898.999818493741	1
0	9303	899.039432829869	2
0	9304	899.092481870477	1
0	9307	899.211056104954	0
0	9311	899.28619769344	1
0	9312	899.329630339431	0
0	9326	900.602619059925	1
0	9328	900.705755213342	2
0	9329	900.713082781584	1
0	9332	900.831657016061	0
0	9336	900.844806344798	1
0	9337	900.950231250538	0
0	9361	903.198694417305	1
0	9362	903.232387315621	0
0	9366	903.318910146351	1
0	9367	903.350961550098	0
0	9386	904.443499902501	1
0	9387	904.520695814624	0
0	9396	905.074030896461	1
0	9397	905.096350079486	0
0	9431	909.342977569825	1
0	9432	909.456950732338	0
0	9476	914.182032710039	1
0	9479	914.292132103985	0
0	9492	915.650537033585	1
0	9493	915.722243947261	0
0	9602	929.207783549887	1
0	9603	929.229390756217	0
0	9612	930.049064861105	1
0	9613	930.13714116767	0
0	9672	937.358842068078	1
0	9673	937.468827254091	0
0	9702	940.741932370238	1
0	9703	940.777554546	0
0	9737	945.638263254355	1
0	9738	945.703410073327	0
0	9747	946.755150583122	1
0	9748	946.823059562044	0
0	9812	951.433470938797	1
0	9813	951.547376469078	0
0	9817	951.663471973332	1
0	9818	951.665950703555	0
0	9829	952.97862396803	1
0	9830	953.030115774423	0
0	9858	956.287026736878	1
0	9859	956.402036222784	0
0	9873	957.08856757057	1
0	9874	957.117421815415	0
0	9878	957.15662877488	1
0	9879	957.235996049892	0
0	9883	957.276302543772	1
0	9884	957.354570284369	0
0	9888	957.426581732376	1
0	9889	957.473144518846	0
0	9908	958.950357482288	1
0	9909	958.975306914498	0
0	9933	961.142007204484	1
0	9934	961.242420108431	0
0	9938	961.315013177324	1
0	9939	961.360994342908	0
0	9953	962.054763006611	1
0	9954	962.096868470937	0
0	9958	962.166771943879	1
0	9959	962.215442705414	0
0	9963	962.267885535619	1
0	9964	962.334016939891	0
0	10018	970.886991488347	1
0	10019	970.888839301373	0
0	10028	971.109452024517	1
0	10029	971.173507895794	0
0	10038	972.019015346152	1
0	10040	972.049575107142	2
0	10041	972.066840793488	1
0	10044	972.185415027965	0
0	10058	972.568961579055	1
0	10060	972.67745882097	2
0	10061	972.683461097557	1
0	10064	972.802035332034	0
0	10073	973.670853434769	1
0	10074	973.684891345786	0
0	10083	973.895384103706	1
0	10084	973.991433690398	0
0	10113	975.919977079396	1
0	10114	975.980736589396	0
0	10123	976.397676833439	1
0	10124	976.469290223758	0
0	10133	976.80401103818	1
0	10134	976.889478664648	0
0	10163	980.931215841399	1
0	10164	981.036266027587	0
0	10173	982.876621601529	1
0	10175	982.876822656516	2
0	10176	982.924969768908	1
0	10181	983.151385224675	0
0	10234	988.02467750891	1
0	10235	988.032391100813	0
0	10249	989.470032643363	1
0	10250	989.568654580865	0
0	10269	990.43493165259	1
0	10270	990.462271000821	0
0	10324	996.561098473944	1
0	10326	996.612553323511	2
0	10327	996.618173522461	1
0	10331	996.687141778632	2
0	10332	996.736747756938	1
0	10335	996.855321991415	0
0	10354	999.532377769906	1
0	10355	999.570787519104	0
0	10359	999.663523923416	1
0	10360	999.689361753581	0
1	5	0.41877722322	0.118574234477
1	12	0.550084476542	0.118574234477
1	15	0.668658711019	0.141054259337
1	22	1.728911138082	0.118574234477
1	27	1.847485372559	0.216364609506
1	30	1.966059607036	0.231768840169
1	35	4.141457942838	0.118574234477
1	40	5.482405892331	0.118574234477
1	47	5.949213647579	0.118574234477
1	50	6.067787882056	0.21391587494
1	55	6.30202650422	0.118574234477
1	60	7.014971390977	0.118574234477
1	67	7.630279897789	0.118574234477
1	70	7.748854132266	0.191196378446
1	77	9.438471473638	0.118574234477
1	80	9.557045708115	0.161301764567
1	85	10.014164633239	0.118574234477
1	90	10.577438563652	0.118574234477
1	95	13.028481769006	0.118574234477
1	100	14.726013369818	0.118574234477
1	105	15.713744025719	0.118574234477
1	110	16.565796168025	0.118574234477
1	115	16.994442436607	0.118574234477
1	120	18.138904867244	0.118574234477
1	125	19.483273450104	0.118574234477
1	130	20.164898096675	0.118574234477
1	135	20.417635715237	0.118574234477
1	140	21.066494500357	0.118574234477
1	147	22.423248554825	0.118574234477
1	152	22.541822789302	0.155363566017
1	155	22.660397023779	0.208233729679
1	160	23.227948275446	0.118574234477
1	165	23.839150099325	0.118574234477
1	170	24.004621349866	0.118574234477
1	175	24.666487504474	0.118574234477
1	184	25.104715021253	0.118574234477
1	187	25.22328925573	0.21746441153
1	190	25.341863490207	0.322150600106
1	201	26.077618037893	0.118574234477
1	204	26.19619227237	0.221760418164
1	207	26.314766506847	0.272907216664
1	210	26.433340741324	0.380431289611
1	215	26.64937612925	0.118574234477
1	220	27.036546324364	0.118574234477
1	227	27.659947125775	0.118574234477
1	230	27.778521360252	0.196800134645
1	235	28.859272320247	0.118574234477
1	242	29.948312219757	0.118574234477
1	245	30.066886454234	0.180301138896
1	252	31.772724058885	0.118574234477
1	255	31.891298293362	0.178880036118
1	260	32.714899551578	0.118574234477
1	265	33.037526723965	0.118574234477
1	270	33.81057176943	0.118574234477
1	275	34.325221604577	0.118574234477
1	280	34.980585969361	0.118574234477
1	285	35.549517882138	0.118574234477
1	290	37.598462779208	0.118574234477
1	295	37.999254596347	0.118574234477
1	300	38.354843869711	0.118574234477
1	305	39.374983115042	0.118574234477
1	310	40.570050299161	0.118574234477
1	315	40.786116613091	0.118574234477
1	320	41.242376807738	0.118574234477
1	325	41.800483395872	0.118574234477
1	330	42.196025510808	0.118574234477
1	335	42.610941800951	0.118574234477
1	344	43.309550043959	0.118574234477
1	347	43.428124278436	0.203181244116
1	356	43.546698512913	0.268119585224
1	360	43.77311396868	0.312826584711
1	363	43.891688203157	0.414828215276
1	366	44.010262437634	0.466603216055
1	371	44.360664150429	0.118574234477
1	376	44.92539447694	0.118574234477
1	381	45.151894661053	0.118574234477
1	390	45.478171048861	0.118574234477
1	393	45.596745283338	0.206712393817
1	398	45.715319517815	0.243343000053
1	403	45.833893752292	0.168347922922
1	406	45.952467986769	0.218388585283
1	411	46.44683000142	0.118574234477
1	416	46.965475024707	0.118574234477
1	421	47.93899832154	0.118574234477
1	428	49.187031310743	0.118574234477
1	431	49.30560554522	0.200449617585
1	436	49.775344001319	0.118574234477
1	443	50.059922316916	0.118574234477
1	446	50.178496551393	0.219693047098
1	451	50.669417802293	0.118574234477
1	456	52.161319778284	0.118574234477
1	461	53.005359521946	0.118574234477
1	466	53.64423833781	0.118574234477
1	471	54.596886309018	0.118574234477
1	478	55.797276319461	0.118574234477
1	481	55.915850553938	0.138999266666
1	486	56.412706502241	0.118574234477
1	491	57.008938883735	0.118574234477
1	496	57.783936549504	0.118574234477
1	501	58.130767569819	0.118574234477
1	506	58.6473023276	0.118574234477
1	511	59.299495959988	0.118574234477
1	516	59.877400863495	0.118574234477
1	521	60.507158767399	0.118574234477
1	528	60.659151423449	0.118574234477
1	531	60.777725657926	0.133294637955
1	536	62.401671042373	0.118574234477
1	543	62.873583687642	0.118574234477
1	546	62.992157922119	0.199083810988
1	551	63.644890477522	0.118574234477
1	556	63.956855570562	0.118574234477
1	561	64.076921192602	0.118574234477
1	566	64.251957268267	0.118574234477
1	571	66.298862651887	0.118574234477
1	576	66.860720567399	0.118574234477
1	581	67.488668183028	0.118574234477
1	586	68.202968820867	0.118574234477
1	591	68.609211442831	0.118574234477
1	596	69.36502326292	0.118574234477
1	601	69.646721775215	0.118574234477
1	608	69.779597342632	0.118574234477
1	613	69.898171577109	0.200967047675
1	616	70.016745811586	0.227485061052
1	621	70.496311752598	0.118574234477
1	626	70.895513430531	0.118574234477
1	631	71.598781049871	0.118574234477
1	636	73.037782749102	0.118574234477
1	641	73.835454706945	0.118574234477
1	646	75.964566136556	0.118574234477
1	651	76.66723762405	0.118574234477
1	656	77.389994179658	0.118574234477
1	661	77.726075875324	0.118574234477
1	666	77.885421374326	0.118574234477
1	671	78.644563640005	0.118574234477
1	676	78.81209132516	0.118574234477
1	683	79.080765746801	0.118574234477
1	686	79.199339981278	0.176751796618
1	691	79.606690962455	0.118574234477
1	696	79.786784389543	0.118574234477
1	703	80.329061033339	0.118574234477
1	707	80.555476489106	0.253181899096
1	712	81.073444817238	0.118574234477
1	719	81.371081564437	0.118574234477
1	722	81.489655798914	0.158550895034
1	727	81.737029872434	0.118574234477
1	732	82.646995159632	0.118574234477
1	737	82.774101121713	0.118574234477
1	744	83.109116831435	0.118574234477
1	747	83.227691065912	0.150893038505
1	752	85.089671394731	0.118574234477
1	757	85.936007452529	0.118574234477
1	762	86.202282208566	0.118574234477
1	767	86.734796401119	0.118574234477
1	772	87.577577715006	0.118574234477
1	779	87.853591597472	0.118574234477
1	784	87.972165831949	0.183153751205
1	787	88.090740066426	0.159853527655
1	792	89.315098636875	0.118574234477
1	797	90.301246810051	0.118574234477
1	802	90.917911204159	0.118574234477
1	809	91.719896555423	0.118574234477
1	812	91.8384707899	0.215013119631
1	817	92.217801169357	0.118574234477
1	822	92.521925542973	0.118574234477
1	827	92.985766476322	0.118574234477
1	832	93.511326087539	0.118574234477
1	837	94.437039576825	0.118574234477
1	842	95.647917017953	0.118574234477
1	849	96.389025658351	0.118574234477
1	854	96.507599892828	0.226184134601
1	857	96.626174127305	0.141157607923
1	862	98.540592290393	0.118574234477
1	867	98.806169485747	0.118574234477
1	872	99.290815702697	0.118574234477
1	877	101.230993551147	0.118574234477
1	882	101.6034119397	0.118574234477
1	887	102.005677312476	0.118574234477
1	892	102.437350068037	0.118574234477
1	897	103.218197296158	0.118574234477
1	902	103.878599445328	0.118574234477
1	907	105.820557314285	0.118574234477
1	914	106.143898606457	0.118574234477
1	917	106.262472840934	0.156094136099
1	922	106.632921266478	0.118574234477
1	927	107.273154425272	0.118574234477
1	932	108.260865674143	0.118574234477
1	937	108.786498573376	0.118574234477
1	942	110.721896168055	0.118574234477
1	947	111.310376154846	0.118574234477
1	952	111.653869917714	0.118574234477
1	957	112.033110439228	0.118574234477
1	962	112.51806102824	0.118574234477
1	967	114.393090582863	0.118574234477
1	974	114.866119434553	0.118574234477
1	977	114.98469366903	0.234485742669
1	984	116.070321024682	0.118574234477
1	989	116.188895259159	0.160779913963
1	994	116.307469493636	0.198808389933
1	997	116.426043728113	0.209311439661
1	1002	117.012533509751	0.118574234477
1	1007	117.541169957275	0.118574234477
1	1012	117.681075513169	0.118574234477
1	1017	118.629671782253	0.118574234477
1	1022	118.805287547189	0.118574234477
1	1027	119.142716373479	0.118574234477
1	1032	119.336292597733	0.118574234477
1	1037	119.503873476224	0.118574234477
1	1042	119.734019029357	0.118574234477
1	1047	119.907221218725	0.118574234477
1	1054	120.724672526707	0.118574234477
1	1058	120.951087982474	0.317861168715
1	1065	121.902808532511	0.118574234477
1	1068	122.021382766988	0.202439052974
1	1075	122.212183558318	0.118574234477
1	1078	122.330757792795	0.160795140193
1	1083	122.617686450932	0.118574234477
1	1092	123.350820640962	0.118574234477
1	1095	123.469394875439	0.146064213107
1	1098	123.587969109916	0.261045155631
1	1103	123.97105789623	0.118574234477
1	1108	124.544027865003	0.118574234477
1	1115	124.859245008959	0.118574234477
1	1122	124.977819243436	0.148525343251
1	1125	125.096393477913	0.148635939574
1	1128	125.21496771239	0.252654484086
1	1133	127.538435985667	0.118574234477
1	1138	128.018430195575	0.118574234477
1	1143	128.59079597754	0.118574234477
1	1148	130.691326765234	0.118574234477
1	1153	131.670189310379	0.118574234477
1	1160	132.880085092534	0.118574234477
1	1163	132.998659327011	0.194838444777
1	1168	134.073877073747	0.118574234477
1	1175	134.389490007773	0.118574234477
1	1178	134.50806424225	0.150932125203
1	1183	134.780791662038	0.118574234477
1	1188	135.520832041716	0.118574234477
1	1193	136.399445218455	0.118574234477
1	1198	136.885575267287	0.118574234477
1	1205	137.655619455849	0.118574234477
1	1210	137.774193690326	0.125858129636
1	1213	137.892767924803	0.217975086802
1	1218	138.585581194794	0.118574234477
1	1223	139.10794313072	0.118574234477
1	1230	140.009077074538	0.118574234477
1	1235	140.127651309015	0.147302465241
1	1238	140.246225543492	0.20233655978
1	1243	140.877176647493	0.118574234477
1	1248	141.625250613038	0.118574234477
1	1253	142.36870418381	0.118574234477
1	1260	144.797868739499	0.118574234477
1	1263	144.916442973976	0.17587728357
1	1268	145.70586566031	0.118574234477
1	1273	146.125350875119	0.118574234477
1	1278	146.521254273239	0.118574234477
1	1287	146.988775844327	0.118574234477
1	1290	147.107350078804	0.211413390475
1	1293	147.225924313281	0.303313228383
1	1298	147.541897615346	0.118574234477
1	1305	147.798589367057	0.118574234477
1	1308	147.917163601534	0.224201483901
1	1315	148.338201096738	0.118574234477
1	1318	148.456775331215	0.211738625
1	1323	149.329277810894	0.118574234477
1	1328	150.208238173783	0.118574234477
1	1333	151.347434889863	0.118574234477
1	1338	151.732921664182	0.118574234477
1	1345	153.194627104484	0.118574234477
1	1348	153.313201338961	0.189582285677
1	1355	153.794930760792	0.118574234477
1	1358	153.913504995269	0.169094763844
1	1363	154.850070023241	0.118574234477
1	1368	155.983065137743	0.118574234477
1	1373	156.588748133874	0.118574234477
1	1378	156.945743796297	0.118574234477
1	1383	157.298219218663	0.118574234477
1	1388	158.346496545557	0.118574234477
1	1393	158.89593024776	0.118574234477
1	1402	159.484231342013	0.118574234477
1	1405	159.60280557649	0.232965389641
1	1411	159.829221032257	0.403004299319
1	1414	159.947795266734	0.178133993261
1	1419	160.223969757643	0.118574234477
1	1424	161.068189476158	0.118574234477
1	1429	162.098884496505	0.118574234477
1	1434	162.300784939049	0.118574234477
1	1443	162.68006242782	0.118574234477
1	1446	162.798636662297	0.186992811204
1	1449	162.917210896774	0.263449374962
1	1454	163.28725518313	0.118574234477
1	1459	164.015990512794	0.118574234477
1	1464	164.17251084831	0.118574234477
1	1469	165.740227394345	0.118574234477
1	1474	167.810528834806	0.118574234477
1	1481	168.395999492328	0.118574234477
1	1486	168.514573726805	0.181189510866
1	1489	168.633147961282	0.227045822413
1	1494	169.179870761068	0.118574234477
1	1499	169.694050369013	0.118574234477
1	1504	170.419093024624	0.118574234477
1	1511	170.939190904987	0.118574234477
1	1514	171.057765139464	0.137760967831
1	1521	171.771035751943	0.118574234477
1	1524	171.88960998642	0.14735737877
1	1531	172.575440743531	0.118574234477
1	1536	172.694014978008	0.138229407393
1	1539	172.812589212485	0.235279270694
1	1544	174.687127936263	0.118574234477
1	1549	175.409305508866	0.118574234477
1	1554	175.699685067208	0.118574234477
1	1559	176.058074091687	0.118574234477
1	1566	176.362333522798	0.118574234477
1	1571	176.480907757275	0.229249019236
1	1574	176.599481991752	0.23627794208
1	1579	176.873208363429	0.118574234477
1	1586	177.148303017605	0.118574234477
1	1591	177.266877252082	0.160279668159
1	1594	177.385451486559	0.20297116443
1	1599	177.573917848733	0.118574234477
1	1606	177.722328723948	0.118574234477
1	1609	177.840902958425	0.186888934621
1	1614	178.954555307409	0.118574234477
1	1621	180.001071091766	0.118574234477
1	1624	180.119645326243	0.164430782181
1	1629	180.35818619175	0.118574234477
1	1634	181.010903154545	0.118574234477
1	1639	181.154924552493	0.118574234477
1	1646	181.565790621647	0.118574234477
1	1649	181.684364856124	0.220401849469
1	1656	181.941725123413	0.118574234477
1	1659	182.06029935789	0.178315843944
1	1666	182.373206353867	0.118574234477
1	1671	182.491780588344	0.181952835351
1	1676	182.610354822821	0.197284530951
1	1679	182.728929057298	0.22959647257
1	1684	183.490009112905	0.118574234477
1	1689	183.621343002465	0.118574234477
1	1694	184.954531867796	0.118574234477
1	1699	185.079342677374	0.118574234477
1	1704	185.829456754462	0.118574234477
1	1711	186.393714105861	0.118574234477
1	1714	186.512288340338	0.182115836878
1	1719	187.371715379059	0.118574234477
1	1726	187.837716445436	0.118574234477
1	1729	187.956290679913	0.130578560318
1	1734	188.410520535113	0.118574234477
1	1739	188.797340404324	0.118574234477
1	1744	190.037099940711	0.118574234477
1	1751	190.895919241527	0.118574234477
1	1754	191.014493476004	0.222168404688
1	1762	191.37259630901	0.118574234477
1	1767	191.491170543487	0.13105804074
1	1770	191.609744777964	0.160541986473
1	1775	193.081155394392	0.118574234477
1	1780	193.396787229164	0.118574234477
1	1785	193.759325835005	0.118574234477
1	1790	193.892002192287	0.118574234477
1	1799	194.180446165544	0.118574234477
1	1802	194.299020400021	0.214785961926
1	1805	194.417594634498	0.294058853215
1	1812	194.733882432741	0.118574234477
1	1815	194.852456667218	0.207360791523
1	1820	195.582551420604	0.118574234477
1	1825	195.828062995907	0.118574234477
1	1830	196.279086989635	0.118574234477
1	1835	197.019894632833	0.118574234477
1	1842	197.95903130112	0.118574234477
1	1845	198.077605535597	0.2316677296
1	1852	198.54279372642	0.118574234477
1	1855	198.661367960897	0.183392946507
1	1860	199.110447003999	0.118574234477
1	1867	199.386633351403	0.118574234477
1	1870	199.50520758588	0.132300495004
1	1875	200.178417391614	0.118574234477
1	1880	200.88052772042	0.118574234477
1	1885	201.391008905048	0.118574234477
1	1890	201.570391628629	0.118574234477
1	1897	201.768595043476	0.118574234477
1	1900	201.887169277953	0.156939162102
1	1905	202.157624560319	0.118574234477
1	1910	202.901307810682	0.118574234477
1	1915	203.165342594501	0.118574234477
1	1920	204.102967622761	0.118574234477
1	1927	204.23472166648	0.118574234477
1	1932	204.353295900957	0.23497149235
1	1935	204.471870135434	0.192665103246
1	1940	205.062070616376	0.118574234477
1	1947	206.186075014548	0.118574234477
1	1950	206.304649249025	0.232210288391
1	1957	206.596954010394	0.118574234477
1	1960	206.715528244871	0.143167720387
1	1965	206.85118485229	0.118574234477
1	1970	207.579144195173	0.118574234477
1	1975	208.531903066133	0.118574234477
1	1980	208.747263351349	0.118574234477
1	1987	208.871632556939	0.118574234477
1	1990	208.990206791416	0.221493857504
1	1995	209.724522926168	0.118574234477
1	2000	210.812574647564	0.118574234477
1	2007	211.861777659474	0.118574234477
1	2010	211.980351893951	0.207839372607
1	2017	212.207301086468	0.118574234477
1	2020	212.325875320945	0.166659469289
1	2025	212.711052018799	0.118574234477
1	2032	212.870174427435	0.118574234477
1	2035	212.988748661912	0.178005364403
1	2042	213.478740889786	0.118574234477
1	2049	213.597315124263	0.123752429343
1	2054	213.71588935874	0.23579102418
1	2057	213.834463593217	0.352498060043
1	2060	213.953037827694	0.245944619699
1	2065	214.382434581394	0.118574234477
1	2070	215.196248342962	0.118574234477
1	2075	216.002405080352	0.118574234477
1	2080	216.347493432035	0.118574234477
1	2085	217.045010718534	0.118574234477
1	2090	218.747749669895	0.118574234477
1	2095	219.315945169261	0.118574234477
1	2100	220.203280655408	0.118574234477
1	2105	220.818567329266	0.118574234477
1	2111	221.319665338605	0.118574234477
1	2116	221.442278746676	0.118574234477
1	2121	221.722790318285	0.118574234477
1	2126	222.36245972035	0.118574234477
1	2131	222.637431597235	0.118574234477
1	2136	222.827040707775	0.118574234477
1	2141	222.994043771073	0.118574234477
1	2146	223.459623350933	0.118574234477
1	2151	223.950839025956	0.118574234477
1	2156	224.812613451827	0.118574234477
1	2161	225.206742368723	0.118574234477
1	2168	225.847096759094	0.118574234477
1	2171	225.965670993571	0.182899682973
1	2176	226.288757439654	0.118574234477
1	2181	227.337513190491	0.118574234477
1	2186	227.7923704778	0.118574234477
1	2191	228.041034507778	0.118574234477
1	2196	228.26259666595	0.118574234477
1	2201	228.547393618473	0.118574234477
1	2208	229.138850492767	0.118574234477
1	2211	229.257424727244	0.191061546344
1	2216	229.378133330869	0.118574234477
1	2221	230.426529494485	0.118574234477
1	2228	230.824460752474	0.118574234477
1	2233	230.943034986951	0.163147107124
1	2236	231.061609221428	0.206039808537
1	2241	231.65033933283	0.118574234477
1	2248	232.066168591596	0.118574234477
1	2253	232.184742826073	0.18054603344
1	2256	232.30331706055	0.190690102584
1	2261	233.88059962015	0.118574234477
1	2268	234.111795135642	0.118574234477
1	2273	234.230369370119	0.127130769622
1	2276	234.348943604596	0.164544075265
1	2281	234.674018539773	0.118574234477
1	2286	234.816466476165	0.118574234477
1	2291	235.978450966114	0.118574234477
1	2296	236.85715424389	0.118574234477
1	2301	237.433742716309	0.118574234477
1	2306	237.837662165592	0.118574234477
1	2313	238.071480850002	0.118574234477
1	2316	238.190055084479	0.229320184531
1	2323	238.408974511181	0.118574234477
1	2326	238.527548745658	0.200431204899
1	2335	239.418647091442	0.118574234477
1	2338	239.537221325919	0.227715928531
1	2343	239.655795560396	0.248127655401
1	2348	239.774369794873	0.223908596014
1	2351	239.89294402935	0.132880927859
1	2358	240.099009807654	0.118574234477
1	2361	240.217584042131	0.228086781262
1	2366	240.66820531255	0.118574234477
1	2371	241.067140075536	0.118574234477
1	2376	241.663413533477	0.118574234477
1	2383	241.866435628442	0.118574234477
1	2386	241.985009862919	0.200674153993
1	2391	242.679164219868	0.118574234477
1	2396	243.195850674325	0.118574234477
1	2401	243.872769288439	0.118574234477
1	2406	244.049518456813	0.118574234477
1	2413	245.214444655297	0.118574234477
1	2416	245.333018889774	0.201704447551
1	2423	246.468475650555	0.118574234477
1	2426	246.587049885032	0.12663603954
1	2431	246.779144180357	0.118574234477
1	2436	247.047154223827	0.118574234477
1	2441	247.229090890785	0.118574234477
1	2446	249.017928300471	0.118574234477
1	2451	249.556003526552	0.118574234477
1	2458	250.112378662051	0.118574234477
1	2462	250.338794117818	0.311192593626
1	2467	251.018609360128	0.118574234477
1	2472	251.258786145003	0.118574234477
1	2479	251.770654979927	0.118574234477
1	2482	251.889229214404	0.206449134018
1	2487	252.40436429482	0.118574234477
1	2492	252.906030408922	0.118574234477
1	2497	253.276517466944	0.118574234477
1	2502	253.599784545204	0.118574234477
1	2507	253.736618343165	0.118574234477
1	2512	253.92275688873	0.118574234477
1	2517	254.416385223337	0.118574234477
1	2524	254.97759089662	0.118574234477
1	2527	255.096165131097	0.179129245212
1	2532	255.448760419849	0.118574234477
1	2537	255.977832315463	0.118574234477
1	2544	256.445297800413	0.118574234477
1	2549	256.56387203489	0.217132819533
1	2554	256.682446269367	0.22736913886
1	2561	256.801020503844	0.160627602686
1	2564	256.919594738321	0.171245622974
1	2567	257.038168972798	0.269241015315
1	2572	259.721316696602	0.118574234477
1	2579	260.271782974606	0.118574234477
1	2582	260.390357209083	0.164012333644
1	2587	261.750265889669	0.118574234477
1	2592	261.956085128578	0.118574234477
1	2597	262.400657264236	0.118574234477
1	2602	262.55006471576	0.118574234477
1	2607	262.947359057478	0.118574234477
1	2612	263.637018582275	0.118574234477
1	2617	265.398664656314	0.118574234477
1	2622	265.868741627301	0.118574234477
1	2631	266.000069764837	0.118574234477
1	2636	266.118643999314	0.185793027285
1	2639	266.237218233791	0.255801645388
1	2642	266.355792468268	0.298201123209
1	2647	267.183789082977	0.118574234477
1	2652	267.425874831278	0.118574234477
1	2657	267.6202634651	0.118574234477
1	2662	267.80470814	0.118574234477
1	2667	268.155496895166	0.118574234477
1	2672	268.46431445869	0.118574234477
1	2677	269.809859003999	0.118574234477
1	2682	271.484697613308	0.118574234477
1	2687	271.672458138354	0.118574234477
1	2692	271.96121542085	0.118574234477
1	2697	272.361846437562	0.118574234477
1	2704	272.846331223674	0.118574234477
1	2707	272.964905458151	0.232983229356
1	2712	273.594331782975	0.118574234477
1	2717	274.33614749828	0.118574234477
1	2722	275.135919665126	0.118574234477
1	2727	275.459416568448	0.118574234477
1	2732	276.084107412291	0.118574234477
1	2737	276.760516510787	0.118574234477
1	2742	277.005002254836	0.118574234477
1	2747	277.21007482495	0.118574234477
1	2752	277.399205465776	0.118574234477
1	2757	277.678634469864	0.118574234477
1	2762	278.189318213044	0.118574234477
1	2767	279.585164767969	0.118574234477
1	2772	280.089641654846	0.118574234477
1	2777	280.946195491808	0.118574234477
1	2782	281.543551152063	0.118574234477
1	2787	281.847705142454	0.118574234477
1	2794	282.171488708818	0.118574234477
1	2797	282.290062943295	0.127249838791
1	2804	282.66197500879	0.118574234477
1	2809	282.780549243267	0.212210164678
1	2813	283.006964699034	0.294911111974
1	2818	283.329995563189	0.118574234477
1	2823	284.559057751538	0.118574234477
1	2828	284.981023254276	0.118574234477
1	2833	285.315415732925	0.118574234477
1	2838	285.738000580322	0.118574234477
1	2843	286.079051627868	0.118574234477
1	2848	286.383789331422	0.118574234477
1	2853	286.80642914487	0.118574234477
1	2858	287.055753632901	0.118574234477
1	2863	287.348663085995	0.118574234477
1	2868	287.897355392359	0.118574234477
1	2873	288.741362258572	0.118574234477
1	2878	288.967832329735	0.118574234477
1	2883	289.399453119546	0.118574234477
1	2888	289.60101986783	0.118574234477
1	2893	290.187502500666	0.118574234477
1	2898	290.422653182167	0.118574234477
1	2905	290.57527047936	0.118574234477
1	2908	290.693844713837	0.151654082845
1	2913	290.916136110389	0.118574234477
1	2920	291.613594473154	0.118574234477
1	2923	291.732168707631	0.196657127459
1	2930	292.238828400301	0.118574234477
1	2933	292.357402634778	0.146125054246
1	2938	292.636777858685	0.118574234477
1	2945	293.151666805822	0.118574234477
1	2948	293.270241040299	0.124207043695
1	2953	293.974940049506	0.118574234477
1	2958	295.114921017338	0.118574234477
1	2963	296.220917431814	0.118574234477
1	2968	296.703979336855	0.118574234477
1	2975	297.344635791941	0.118574234477
1	2978	297.463210026418	0.166095828597
1	2985	297.662459354399	0.118574234477
1	2988	297.781033588876	0.153409359161
1	2993	300.070869201553	0.118574234477
1	2998	300.535101735363	0.118574234477
1	3005	300.920045838589	0.118574234477
1	3008	301.038620073066	0.213808830408
1	3013	301.489196932627	0.118574234477
1	3018	302.314115422276	0.118574234477
1	3025	302.703667518688	0.118574234477
1	3028	302.822241753165	0.141154056285
1	3033	302.988343433384	0.118574234477
1	3038	305.789347504672	0.118574234477
1	3043	306.71208338965	0.118574234477
1	3048	306.979090667859	0.118574234477
1	3053	307.55877533274	0.118574234477
1	3060	308.040970168152	0.118574234477
1	3063	308.159544402629	0.202389841045
1	3068	308.38074988191	0.118574234477
1	3073	309.490017443547	0.118574234477
1	3078	310.324210201109	0.118574234477
1	3085	310.677355232884	0.118574234477
1	3088	310.795929467361	0.145936667682
1	3093	311.008474664259	0.118574234477
1	3098	311.190169165057	0.118574234477
1	3103	311.64186407429	0.118574234477
1	3108	311.875257822785	0.118574234477
1	3115	312.469760671124	0.118574234477
1	3118	312.588334905601	0.217365325932
1	3125	313.255390968239	0.118574234477
1	3128	313.373965202716	0.176956054325
1	3133	314.141115934532	0.118574234477
1	3140	314.511411605904	0.118574234477
1	3143	314.629985840381	0.22045200011
1	3148	314.86476815165	0.118574234477
1	3153	316.998520713495	0.118574234477
1	3158	317.674248728829	0.118574234477
1	3166	320.015543003162	0.118574234477
1	3171	320.134117237639	0.225621238821
1	3174	320.252691472116	0.225620654779
1	3179	320.382349504801	0.118574234477
1	3184	320.822831896514	0.118574234477
1	3191	321.394352592379	0.118574234477
1	3194	321.512926826856	0.23542353497
1	3199	322.023567594182	0.118574234477
1	3204	322.172196695507	0.118574234477
1	3211	322.791932732202	0.118574234477
1	3214	322.910506966679	0.196430768956
1	3219	323.240556976772	0.118574234477
1	3226	323.662228076991	0.118574234477
1	3229	323.780802311468	0.142990232101
1	3234	324.065295072392	0.118574234477
1	3239	324.498558668175	0.118574234477
1	3244	324.809585333348	0.118574234477
1	3251	325.243106423666	0.118574234477
1	3254	325.361680658143	0.181602909135
1	3259	325.643031832914	0.118574234477
1	3264	325.923145120095	0.118574234477
1	3271	326.637777569059	0.118574234477
1	3274	326.756351803536	0.225034390513
1	3281	327.539025499261	0.118574234477
1	3284	327.657599733738	0.192584810807
1	3289	327.939739845444	0.118574234477
1	3294	328.223297007372	0.118574234477
1	3299	328.670796289993	0.118574234477
1	3304	329.346809124334	0.118574234477
1	3309	329.672402691293	0.118574234477
1	3314	330.031560485416	0.118574234477
1	3319	330.318395180871	0.118574234477
1	3324	330.567696110786	0.118574234477
1	3329	330.734557756787	0.118574234477
1	3334	330.874006101081	0.118574234477
1	3339	331.06990975246	0.118574234477
1	3344	332.221320669631	0.118574234477
1	3349	332.499524192212	0.118574234477
1	3354	332.779147799999	0.118574234477
1	3359	333.866139726191	0.118574234477
1	3366	334.089234366807	0.118574234477
1	3369	334.207808601284	0.221575965489
1	3374	334.688781969066	0.118574234477
1	3379	335.518675998701	0.118574234477
1	3384	336.74159495392	0.118574234477
1	3389	337.153141410197	0.118574234477
1	3400	337.751248641031	0.118574234477
1	3403	337.869822875508	0.229119691623
1	3406	337.988397109985	0.277745216089
1	3409	338.106971344462	0.364112184049
1	3416	338.38578707554	0.118574234477
1	3421	338.504361310017	0.228983364038
1	3424	338.622935544494	0.118925105508
1	3431	339.168197777129	0.118574234477
1	3434	339.286772011606	0.124013961005
1	3441	340.092789208768	0.118574234477
1	3444	340.211363443245	0.124111916184
1	3449	341.116439658973	0.118574234477
1	3454	341.632384621464	0.118574234477
1	3463	341.780529216667	0.118574234477
1	3466	341.899103451144	0.127127932818
1	3469	342.017677685621	0.23888355925
1	3474	342.214415725644	0.118574234477
1	3479	342.422680715697	0.118574234477
1	3484	342.635372310975	0.118574234477
1	3489	343.388108561967	0.118574234477
1	3494	344.099583153639	0.118574234477
1	3499	345.195439709162	0.118574234477
1	3506	345.773141725944	0.118574234477
1	3509	345.891715960421	0.159956670199
1	3515	346.215443320728	0.118574234477
1	3522	346.355853367275	0.118574234477
1	3525	346.474427601752	0.13898186768
1	3532	348.768147531902	0.118574234477
1	3535	348.886721766379	0.204826923437
1	3540	351.00412859395	0.118574234477
1	3545	352.317349370984	0.118574234477
1	3550	353.878763250829	0.118574234477
1	3555	354.036065923866	0.118574234477
1	3562	354.6479918866	0.118574234477
1	3565	354.766566121077	0.138352166034
1	3570	355.400074138523	0.118574234477
1	3575	355.802542934872	0.118574234477
1	3580	356.30783557269	0.118574234477
1	3585	356.457584782008	0.118574234477
1	3592	357.202871687243	0.118574234477
1	3595	357.32144592172	0.235450399967
1	3600	357.486586993035	0.118574234477
1	3605	357.728156094543	0.118574234477
1	3610	358.049069535136	0.118574234477
1	3615	358.269623699893	0.118574234477
1	3622	358.403068145568	0.118574234477
1	3625	358.521642380045	0.147952017737
1	3632	358.913159048224	0.118574234477
1	3635	359.031733282701	0.138188519176
1	3640	359.150572208693	0.118574234477
1	3645	360.460424224086	0.118574234477
1	3650	361.11621515006	0.118574234477
1	3655	361.394487602181	0.118574234477
1	3660	361.910941714385	0.118574234477
1	3667	362.482169114149	0.118574234477
1	3670	362.600743348626	0.158437224847
1	3675	363.141295439866	0.118574234477
1	3680	363.662686466129	0.118574234477
1	3685	363.992868073325	0.118574234477
1	3690	364.745452123688	0.118574234477
1	3697	365.203890245005	0.118574234477
1	3700	365.322464479482	0.177483667781
1	3705	366.145603912748	0.118574234477
1	3710	366.3384848318	0.118574234477
1	3715	366.976098661243	0.118574234477
1	3720	367.438978197465	0.118574234477
1	3727	368.462380731109	0.118574234477
1	3730	368.580954965586	0.118945316519
1	3735	369.114261147215	0.118574234477
1	3740	369.785756485978	0.118574234477
1	3745	370.11818070552	0.118574234477
1	3750	370.394049318682	0.118574234477
1	3755	371.108286833275	0.118574234477
1	3760	371.319881686716	0.118574234477
1	3765	372.516590360234	0.118574234477
1	3770	373.200854044993	0.118574234477
1	3775	373.497486298499	0.118574234477
1	3780	373.706214185207	0.118574234477
1	3785	374.356437594974	0.118574234477
1	3792	375.978855063916	0.118574234477
1	3795	376.097429298393	0.164102648439
1	3800	376.588417033377	0.118574234477
1	3807	377.248868109634	0.118574234477
1	3810	377.367442344111	0.187448853593
1	3815	377.630758955421	0.118574234477
1	3820	378.015491590258	0.118574234477
1	3827	378.726194859367	0.118574234477
1	3830	378.844769093844	0.151740005811
1	3837	379.067853470647	0.118574234477
1	3840	379.186427705124	0.192467280695
1	3845	380.022468726158	0.118574234477
1	3850	380.484375342645	0.118574234477
1	3855	381.054947446302	0.118574234477
1	3860	381.331496829105	0.118574234477
1	3866	382.257816573846	0.118574234477
1	3871	382.802440232514	0.118574234477
1	3876	382.958197427246	0.118574234477
1	3883	383.543675767132	0.118574234477
1	3886	383.662250001609	0.128100129969
1	3891	384.223897659264	0.118574234477
1	3898	385.279829874458	0.118574234477
1	3901	385.398404108935	0.180720583119
1	3906	386.214462982189	0.118574234477
1	3911	386.629712733655	0.118574234477
1	3920	387.609666112335	0.118574234477
1	3923	387.728240346812	0.224044965699
1	3926	387.846814581289	0.288002506652
1	3931	388.152820196301	0.118574234477
1	3936	388.436050978916	0.118574234477
1	3941	389.024464146268	0.118574234477
1	3948	389.430820208119	0.118574234477
1	3951	389.549394442596	0.219727414597
1	3956	389.791083452368	0.118574234477
1	3963	389.941629058259	0.118574234477
1	3966	390.060203292736	0.141541799184
1	3971	390.313106530849	0.118574234477
1	3976	390.743073043737	0.118574234477
1	3981	391.043718400125	0.118574234477
1	3986	391.55457769381	0.118574234477
1	3991	391.708981625634	0.118574234477
1	3996	392.165127704468	0.118574234477
1	4001	392.36151494878	0.118574234477
1	4006	392.650469717978	0.118574234477
1	4011	392.845318843138	0.118574234477
1	4016	393.040963556674	0.118574234477
1	4021	393.270990421568	0.118574234477
1	4026	394.739926144406	0.118574234477
1	4031	395.26631557147	0.118574234477
1	4036	396.48945877725	0.118574234477
1	4041	396.998478705439	0.118574234477
1	4046	398.574360058046	0.118574234477
1	4051	401.338478338262	0.118574234477
1	4056	402.569098585652	0.118574234477
1	4061	403.443483434779	0.118574234477
1	4068	403.56655764041	0.118574234477
1	4071	403.685131874887	0.177265230906
1	4076	403.987131720297	0.118574234477
1	4081	404.115269295457	0.118574234477
1	4086	405.216375130187	0.118574234477
1	4091	406.299248858537	0.118574234477
1	4096	407.169644101248	0.118574234477
1	4103	408.227502613214	0.118574234477
1	4106	408.346076847691	0.163971580133
1	4111	409.502695218128	0.118574234477
1	4116	409.939612498354	0.118574234477
1	4121	410.360701559551	0.118574234477
1	4128	412.051614666837	0.118574234477
1	4131	412.170188901314	0.218456566395
1	4136	412.357418290052	0.118574234477
1	4141	412.978865394335	0.118574234477
1	4146	413.933022899587	0.118574234477
1	4153	414.15542202976	0.118574234477
1	4156	414.273996264237	0.232966775937
1	4161	414.535771196038	0.118574234477
1	4166	414.679116941715	0.118574234477
1	4173	415.772333012578	0.118574234477
1	4176	415.890907247055	0.167787147207
1	4183	416.482981407099	0.118574234477
1	4186	416.601555641576	0.126938479403
1	4191	417.071318668481	0.118574234477
1	4196	417.647908031261	0.118574234477
1	4203	418.394980851653	0.118574234477
1	4206	418.51355508613	0.185577234707
1	4211	419.898778966792	0.118574234477
1	4217	420.244209069257	0.118574234477
1	4224	420.761058710511	0.118574234477
1	4227	420.879632944988	0.141588260751
1	4232	421.936169603305	0.118574234477
1	4237	422.586377198688	0.118574234477
1	4242	423.758490430747	0.118574234477
1	4247	423.956274638721	0.118574234477
1	4252	424.199988497531	0.118574234477
1	4257	424.348061310832	0.118574234477
1	4262	424.527609313453	0.118574234477
1	4267	425.206330980853	0.118574234477
1	4274	425.403081240861	0.118574234477
1	4279	425.521655475338	0.188627582187
1	4284	425.640229709815	0.131050874472
1	4287	425.758803944292	0.193142345302
1	4292	426.439085256984	0.118574234477
1	4297	427.551161993804	0.118574234477
1	4302	427.903915205149	0.118574234477
1	4307	428.590926736791	0.118574234477
1	4312	428.937533054119	0.118574234477
1	4319	429.80598316059	0.118574234477
1	4322	429.924557395067	0.210067573386
1	4327	431.334471782695	0.118574234477
1	4334	432.001973985855	0.118574234477
1	4337	432.120548220332	0.148882253436
1	4342	432.312381359838	0.118574234477
1	4351	432.967321556351	0.118574234477
1	4354	433.085895790828	0.201511251631
1	4357	433.204470025305	0.288957858786
1	4362	433.547533247868	0.118574234477
1	4367	434.139000199682	0.118574234477
1	4372	434.534328124596	0.118574234477
1	4377	434.938300172906	0.118574234477
1	4384	435.150050159483	0.118574234477
1	4387	435.26862439396	0.23213510916
1	4392	435.489678162261	0.118574234477
1	4399	435.82190221503	0.118574234477
1	4402	435.940476449507	0.187906221231
1	4407	436.138060414841	0.118574234477
1	4412	436.941699999144	0.118574234477
1	4417	437.499528111006	0.118574234477
1	4422	437.978390230245	0.118574234477
1	4427	438.111700749631	0.118574234477
1	4432	439.273409171041	0.118574234477
1	4437	439.396944417461	0.118574234477
1	4442	439.859369676465	0.118574234477
1	4449	440.259786283213	0.118574234477
1	4452	440.37836051769	0.220405997763
1	4457	440.527945959524	0.118574234477
1	4462	441.137053891318	0.118574234477
1	4467	441.303878778347	0.118574234477
1	4472	442.431292817101	0.118574234477
1	4477	442.769115458101	0.118574234477
1	4482	443.860128703022	0.118574234477
1	4489	444.088547175421	0.118574234477
1	4492	444.207121409898	0.222068823207
1	4497	445.036596771405	0.118574234477
1	4502	446.299003822054	0.118574234477
1	4507	446.454598805428	0.118574234477
1	4512	446.810502027935	0.118574234477
1	4517	447.232331878004	0.118574234477
1	4522	447.372417695596	0.118574234477
1	4527	447.926989318486	0.118574234477
1	4532	448.693776624726	0.118574234477
1	4537	449.405410036943	0.118574234477
1	4542	449.760846449419	0.118574234477
1	4549	450.046740224759	0.118574234477
1	4552	450.165314459236	0.121602225792
1	4557	450.482207987808	0.118574234477
1	4562	450.890433101971	0.118574234477
1	4570	451.262034183799	0.118574234477
1	4573	451.380608418276	0.137360466868
1	4578	452.636984164163	0.118574234477
1	4583	453.122595815971	0.118574234477
1	4588	453.529733536928	0.118574234477
1	4593	454.025047554865	0.118574234477
1	4598	454.679000472084	0.118574234477
1	4603	454.80435356775	0.118574234477
1	4612	455.194963352918	0.118574234477
1	4615	455.313537587395	0.224452740114
1	4618	455.432111821872	0.262451722638
1	4627	455.577456564891	0.118574234477
1	4630	455.696030799368	0.215549519372
1	4635	455.814605033845	0.29826105905
1	4638	455.933179268322	0.220210637198
1	4643	456.355813762396	0.118574234477
1	4648	456.918348385951	0.118574234477
1	4653	457.378062988124	0.118574234477
1	4660	457.849527080488	0.118574234477
1	4663	457.968101314965	0.190251843638
1	4670	458.72960689746	0.118574234477
1	4673	458.848181131937	0.144389474772
1	4680	459.205495553382	0.118574234477
1	4683	459.324069787859	0.235871321841
1	4688	459.891348479697	0.118574234477
1	4695	460.992038002044	0.118574234477
1	4698	461.110612236521	0.204938062645
1	4703	462.767861875219	0.118574234477
1	4710	463.273629521873	0.118574234477
1	4713	463.39220375635	0.159482891245
1	4718	463.873298777091	0.118574234477
1	4723	464.165556152987	0.118574234477
1	4728	465.237122665191	0.118574234477
1	4733	465.679627675622	0.118574234477
1	4738	465.838817274009	0.118574234477
1	4745	466.002375545947	0.118574234477
1	4748	466.120949780424	0.175247304093
1	4755	467.295550967001	0.118574234477
1	4758	467.414125201478	0.221509177581
1	4763	467.628021695158	0.118574234477
1	4770	467.972949774951	0.118574234477
1	4777	468.091524009428	0.198260295352
1	4780	468.210098243905	0.126368612048
1	4785	468.328672478382	0.237336321414
1	4790	468.447246712859	0.135265196129
1	4793	468.565820947336	0.139406660588
1	4800	469.103446167587	0.118574234477
1	4803	469.222020402064	0.176382661673
1	4808	469.69791214862	0.118574234477
1	4813	469.822580074288	0.118574234477
1	4820	470.791951269702	0.118574234477
1	4823	470.910525504179	0.134170675585
1	4828	472.70994939893	0.118574234477
1	4835	473.130365173343	0.118574234477
1	4840	473.24893940782	0.162162969715
1	4843	473.367513642297	0.154389241842
1	4852	474.451878813711	0.118574234477
1	4855	474.570453048188	0.17955622087
1	4858	474.689027282665	0.240841774446
1	4863	475.201198834697	0.118574234477
1	4868	475.637993291003	0.118574234477
1	4873	476.465469643697	0.118574234477
1	4878	477.644275370365	0.118574234477
1	4887	477.819372267324	0.118574234477
1	4890	477.937946501801	0.133929221518
1	4893	478.056520736278	0.244667587402
1	4898	478.255195424426	0.118574234477
1	4903	478.733725710866	0.118574234477
1	4910	479.651165472542	0.118574234477
1	4913	479.769739707019	0.177693823706
1	4919	480.303722118838	0.118574234477
1	4924	480.711476813391	0.118574234477
1	4929	481.10900627982	0.118574234477
1	4936	482.270526053858	0.118574234477
1	4939	482.389100288335	0.173356849803
1	4944	482.548549764495	0.118574234477
1	4949	482.738985466554	0.118574234477
1	4954	483.104242852737	0.118574234477
1	4959	483.395154846096	0.118574234477
1	4964	484.365929394816	0.118574234477
1	4969	484.797748763967	0.118574234477
1	4974	484.933685905784	0.118574234477
1	4979	485.315274772912	0.118574234477
1	4984	485.510951923395	0.118574234477
1	4989	485.687828840365	0.118574234477
1	4994	486.110544602196	0.118574234477
1	4999	486.818709820988	0.118574234477
1	5006	486.946562069909	0.118574234477
1	5009	487.065136304386	0.135806598817
1	5014	487.221694267288	0.118574234477
1	5019	487.874427243438	0.118574234477
1	5026	488.061826673804	0.118574234477
1	5029	488.180400908281	0.191095844764
1	5034	488.689971431021	0.118574234477
1	5039	489.160170918954	0.118574234477
1	5044	490.046828894069	0.118574234477
1	5049	490.543611766039	0.118574234477
1	5054	490.975635863139	0.118574234477
1	5059	491.106065352423	0.118574234477
1	5064	491.283526590473	0.118574234477
1	5069	495.142071168007	0.118574234477
1	5074	495.321881193011	0.118574234477
1	5079	495.530043123699	0.118574234477
1	5084	496.04300498595	0.118574234477
1	5089	496.558362510973	0.118574234477
1	5094	496.973295624569	0.118574234477
1	5099	497.150477620989	0.118574234477
1	5104	497.661325805441	0.118574234477
1	5109	499.13691311748	0.118574234477
1	5116	499.4514572115	0.118574234477
1	5119	499.570031445977	0.211317364523
1	5126	500.232872483133	0.118574234477
1	5129	500.35144671761	0.205380891799
1	5136	500.979945855282	0.118574234477
1	5139	501.098520089759	0.192088040114
1	5144	501.284731291575	0.118574234477
1	5151	502.760806900702	0.118574234477
1	5156	502.879381135179	0.121546170463
1	5159	502.997955369656	0.19595134059
1	5164	503.977264114512	0.118574234477
1	5169	504.772441162386	0.118574234477
1	5174	504.892592080239	0.118574234477
1	5179	505.36062593609	0.118574234477
1	5184	506.281865749632	0.118574234477
1	5189	506.97174600458	0.118574234477
1	5194	507.329682817803	0.118574234477
1	5201	507.801884772412	0.118574234477
1	5204	507.920459006889	0.193484620218
1	5211	508.961680253238	0.118574234477
1	5214	509.080254487715	0.187286441442
1	5219	509.639265528811	0.118574234477
1	5224	510.766040664644	0.118574234477
1	5229	511.052582776905	0.118574234477
1	5236	511.505799306977	0.118574234477
1	5241	511.624373541454	0.213054766542
1	5246	511.742947775931	0.233662082365
1	5251	511.861522010408	0.145758017139
1	5254	511.980096244885	0.235492752787
1	5259	512.228812421978	0.118574234477
1	5266	512.468723852302	0.118574234477
1	5270	512.695139308069	0.226761964433
1	5275	512.983842331233	0.118574234477
1	5280	513.459921691802	0.118574234477
1	5285	513.77324362249	0.118574234477
1	5290	514.762460541519	0.118574234477
1	5297	516.168894475125	0.118574234477
1	5300	516.287468709602	0.177357773648
1	5307	516.806957692093	0.118574234477
1	5310	516.92553192657	0.12552638497
1	5315	518.108747366502	0.118574234477
1	5320	519.665322837955	0.118574234477
1	5325	520.046519148673	0.118574234477
1	5330	520.282641039512	0.118574234477
1	5337	520.430422599236	0.118574234477
1	5340	520.548996833713	0.18357591147
1	5345	520.671703168333	0.118574234477
1	5350	521.342275042425	0.118574234477
1	5355	521.539585021056	0.118574234477
1	5360	521.797556763148	0.118574234477
1	5365	522.062336689009	0.118574234477
1	5370	522.7017009035	0.118574234477
1	5375	523.231706090256	0.118574234477
1	5382	523.727921993586	0.118574234477
1	5385	523.846496228063	0.210072994723
1	5390	524.084531236278	0.118574234477
1	5395	524.211111142384	0.118574234477
1	5400	524.695600819528	0.118574234477
1	5407	525.844266489749	0.118574234477
1	5410	525.962840724226	0.153675491451
1	5415	526.653273894794	0.118574234477
1	5420	526.819954151907	0.118574234477
1	5425	527.051751773504	0.118574234477
1	5430	528.272427222801	0.118574234477
1	5435	528.909854157083	0.118574234477
1	5442	529.220027663396	0.118574234477
1	5447	529.338601897873	0.124984770922
1	5450	529.45717613235	0.177101423365
1	5455	529.708015760684	0.118574234477
1	5460	530.010106034235	0.118574234477
1	5467	530.583880226719	0.118574234477
1	5472	530.702454461196	0.153572952214
1	5477	530.821028695673	0.165105915158
1	5480	530.93960293015	0.125935853983
1	5485	531.600283212256	0.118574234477
1	5492	534.030585135819	0.118574234477
1	5495	534.149159370296	0.182976893191
1	5500	536.237399731281	0.118574234477
1	5505	536.452090120666	0.118574234477
1	5510	536.835628739094	0.118574234477
1	5515	537.626876285726	0.118574234477
1	5520	538.331499355643	0.118574234477
1	5525	538.648100746296	0.118574234477
1	5530	539.273761062553	0.118574234477
1	5535	539.529516148532	0.118574234477
1	5542	539.767889223395	0.118574234477
1	5545	539.886463457872	0.216615682293
1	5552	540.247156687583	0.118574234477
1	5555	540.36573092206	0.230740089852
1	5560	541.68549529342	0.118574234477
1	5565	541.855685564492	0.118574234477
1	5570	542.268379429155	0.118574234477
1	5575	542.575156639991	0.118574234477
1	5582	543.844244925317	0.118574234477
1	5585	543.962819159794	0.18175471368
1	5590	544.627199495903	0.118574234477
1	5595	544.969298832731	0.118574234477
1	5600	545.401805159201	0.118574234477
1	5605	545.54011613341	0.118574234477
1	5610	545.9758474775	0.118574234477
1	5617	546.576421434575	0.118574234477
1	5621	546.802836890342	0.322575677402
1	5626	550.260359947115	0.118574234477
1	5631	550.591932186371	0.118574234477
1	5636	550.924619046072	0.118574234477
1	5641	551.114837398248	0.118574234477
1	5646	551.512723064851	0.118574234477
1	5651	551.904457240118	0.118574234477
1	5656	552.851274576607	0.118574234477
1	5661	553.691456582737	0.118574234477
1	5666	556.417033264015	0.118574234477
1	5671	557.137952068395	0.118574234477
1	5676	557.732773661986	0.118574234477
1	5681	558.198324987243	0.118574234477
1	5686	558.744982492019	0.118574234477
1	5691	559.38242764674	0.118574234477
1	5696	560.267747334525	0.118574234477
1	5701	560.881459523575	0.118574234477
1	5706	561.245360328894	0.118574234477
1	5713	562.566027543074	0.118574234477
1	5716	562.684601777551	0.236706519222
1	5721	562.929812915476	0.118574234477
1	5726	563.978963882331	0.118574234477
1	5731	564.211518790471	0.118574234477
1	5736	564.700195901233	0.118574234477
1	5741	565.22173372429	0.118574234477
1	5746	565.448963115923	0.118574234477
1	5751	565.777544895992	0.118574234477
1	5756	567.461984429484	0.118574234477
1	5761	567.898907766941	0.118574234477
1	5766	568.233291542875	0.118574234477
1	5771	568.373217128248	0.118574234477
1	5776	569.127582901199	0.118574234477
1	5781	569.571929900422	0.118574234477
1	5786	570.257281000504	0.118574234477
1	5791	570.55426296655	0.118574234477
1	5798	571.098781692797	0.118574234477
1	5801	571.217355927274	0.182390594248
1	5806	572.300727337266	0.118574234477
1	5811	572.572840512046	0.118574234477
1	5816	573.145988063826	0.118574234477
1	5821	573.424739852442	0.118574234477
1	5826	573.849816328975	0.118574234477
1	5833	574.234236787962	0.118574234477
1	5836	574.352811022439	0.180948061103
1	5841	575.082555635273	0.118574234477
1	5846	575.919204938832	0.118574234477
1	5851	576.094049626447	0.118574234477
1	5856	576.793980864762	0.118574234477
1	5863	577.333356373219	0.118574234477
1	5866	577.451930607696	0.212233767503
1	5871	577.776963308699	0.118574234477
1	5876	578.007463199522	0.118574234477
1	5881	578.155323226234	0.118574234477
1	5886	578.660553460427	0.118574234477
1	5891	578.804799575383	0.118574234477
1	5896	579.367675558334	0.118574234477
1	5901	579.611513879786	0.118574234477
1	5906	580.35689000101	0.118574234477
1	5911	581.120241838435	0.118574234477
1	5916	581.292284194392	0.118574234477
1	5921	581.923866173735	0.118574234477
1	5926	582.290648169592	0.118574234477
1	5931	582.503549754358	0.118574234477
1	5936	584.092183471706	0.118574234477
1	5941	584.396227581494	0.118574234477
1	5946	585.353542106109	0.118574234477
1	5951	586.571651824968	0.118574234477
1	5956	586.76896775468	0.118574234477
1	5961	587.230529324332	0.118574234477
1	5966	587.377465315201	0.118574234477
1	5972	587.603880770968	0.18176516744
1	5977	588.508981982404	0.118574234477
1	5982	588.874974313244	0.118574234477
1	5987	589.157480683327	0.118574234477
1	5992	589.633770202859	0.118574234477
1	5999	589.799926804935	0.118574234477
1	6002	589.918501039412	0.181237365643
1	6007	590.19211427915	0.118574234477
1	6012	591.593904495177	0.118574234477
1	6017	592.435047939148	0.118574234477
1	6022	593.123131895454	0.118574234477
1	6027	593.312599122318	0.118574234477
1	6032	593.579210108058	0.118574234477
1	6037	594.131831894273	0.118574234477
1	6042	594.567002102007	0.118574234477
1	6047	595.289590118223	0.118574234477
1	6052	595.673459634342	0.118574234477
1	6057	595.914169151654	0.118574234477
1	6062	596.250185223241	0.118574234477
1	6071	596.570896476091	0.118574234477
1	6074	596.689470710568	0.197343126953
1	6077	596.808044945045	0.250988855191
1	6084	596.963341924719	0.118574234477
1	6089	597.081916159196	0.20004830287
1	6092	597.200490393673	0.234596673201
1	6097	597.548504909046	0.118574234477
1	6104	598.329486706395	0.118574234477
1	6109	598.448060940872	0.149337071537
1	6112	598.566635175349	0.200822843385
1	6117	598.738565169846	0.118574234477
1	6122	598.9505819559	0.118574234477
1	6127	600.503449196455	0.118574234477
1	6134	602.340324886164	0.118574234477
1	6139	602.458899120641	0.162963467837
1	6142	602.577473355118	0.219155308944
1	6147	602.76838938217	0.118574234477
1	6152	603.528851719186	0.118574234477
1	6157	603.70404695875	0.118574234477
1	6162	603.858640837623	0.118574234477
1	6167	604.01294715155	0.118574234477
1	6174	605.253889127184	0.118574234477
1	6177	605.372463361661	0.209990785119
1	6182	605.578952562394	0.118574234477
1	6189	605.865492511065	0.118574234477
1	6192	605.984066745542	0.21392488225
1	6197	606.225428884228	0.118574234477
1	6202	606.565573882689	0.118574234477
1	6207	606.959556802478	0.118574234477
1	6212	607.824843161263	0.118574234477
1	6217	608.04171484749	0.118574234477
1	6222	608.629583802258	0.118574234477
1	6227	608.772929775573	0.118574234477
1	6232	609.314023677382	0.118574234477
1	6237	610.670603516182	0.118574234477
1	6242	611.464214323138	0.118574234477
1	6247	611.686266967703	0.118574234477
1	6256	611.99978765285	0.118574234477
1	6259	612.118361887327	0.137709629281
1	6264	612.236936121804	0.245853944643
1	6267	612.355510356281	0.223779342228
1	6274	612.854551044744	0.118574234477
1	6277	612.973125279221	0.187884397035
1	6282	613.37742082399	0.118574234477
1	6287	613.514018761054	0.118574234477
1	6292	614.765906578826	0.118574234477
1	6297	615.160705323353	0.118574234477
1	6304	616.109225805531	0.118574234477
1	6307	616.227800040008	0.206030004065
1	6314	616.593941389806	0.118574234477
1	6317	616.712515624283	0.150283171198
1	6323	617.742371581233	0.118574234477
1	6330	619.308339760386	0.118574234477
1	6333	619.426913994863	0.16357626324
1	6338	620.751466023229	0.118574234477
1	6343	621.179701206908	0.118574234477
1	6350	622.081032760856	0.118574234477
1	6353	622.199606995333	0.158022013328
1	6358	622.683826257701	0.118574234477
1	6363	623.299030910976	0.118574234477
1	6368	623.613750579622	0.118574234477
1	6373	624.034969154505	0.118574234477
1	6378	625.003832896474	0.118574234477
1	6383	625.266845031679	0.118574234477
1	6388	625.444383905693	0.118574234477
1	6393	625.746873673859	0.118574234477
1	6398	627.409603889427	0.118574234477
1	6403	627.968080505829	0.118574234477
1	6408	628.381610773434	0.118574234477
1	6413	628.997870546385	0.118574234477
1	6418	629.427787081276	0.118574234477
1	6423	629.796963762563	0.118574234477
1	6430	630.221573496658	0.118574234477
1	6433	630.340147731135	0.187781650753
1	6442	631.101858838367	0.118574234477
1	6445	631.220433072844	0.22311078266
1	6450	631.339007307321	0.247644624131
1	6453	631.457581541798	0.19858375834
1	6458	632.153429250538	0.118574234477
1	6463	632.562107907753	0.118574234477
1	6468	633.113773388033	0.118574234477
1	6473	633.455047993514	0.118574234477
1	6480	634.799949587691	0.118574234477
1	6483	634.918523822168	0.165178850598
1	6488	635.272961102915	0.118574234477
1	6493	635.504401583751	0.118574234477
1	6498	636.385288467157	0.118574234477
1	6503	636.586623008026	0.118574234477
1	6508	637.026303958909	0.118574234477
1	6513	637.459230591659	0.118574234477
1	6518	638.026400537522	0.118574234477
1	6523	638.668568228594	0.118574234477
1	6528	638.958861100776	0.118574234477
1	6533	640.814447993876	0.118574234477
1	6538	641.380783576986	0.118574234477
1	6543	641.800166822636	0.118574234477
1	6548	642.392874188327	0.118574234477
1	6553	644.705514112602	0.118574234477
1	6560	646.072437786396	0.118574234477
1	6563	646.191012020873	0.161323219439
1	6568	646.434486799331	0.118574234477
1	6573	646.678774630489	0.118574234477
1	6578	646.840365707422	0.118574234477
1	6583	648.222522275643	0.118574234477
1	6590	648.964994637009	0.118574234477
1	6593	649.083568871486	0.23665218555
1	6598	649.73775474852	0.118574234477
1	6603	650.151055021935	0.118574234477
1	6608	651.992204462567	0.118574234477
1	6613	652.312582206866	0.118574234477
1	6618	652.556420398641	0.118574234477
1	6623	653.637706313875	0.118574234477
1	6630	653.85965222331	0.118574234477
1	6633	653.978226457787	0.228619965858
1	6638	654.404474152186	0.118574234477
1	6643	654.93146929576	0.118574234477
1	6648	656.715872595481	0.118574234477
1	6653	657.01295689051	0.118574234477
1	6658	658.769099013482	0.118574234477
1	6665	659.02154349544	0.118574234477
1	6670	659.140117729917	0.221394056273
1	6674	659.366533185684	0.256536085107
1	6679	659.628251754092	0.118574234477
1	6684	659.799786732765	0.118574234477
1	6689	660.422662095595	0.118574234477
1	6696	660.941536255245	0.118574234477
1	6699	661.060110489722	0.178491684316
1	6704	661.835608065544	0.118574234477
1	6709	662.399384904591	0.118574234477
1	6714	663.858840057885	0.118574234477
1	6719	664.14647292188	0.118574234477
1	6724	665.47551243273	0.118574234477
1	6731	666.045891472355	0.118574234477
1	6734	666.164465706832	0.223099665004
1	6741	666.29527105061	0.118574234477
1	6744	666.413845285087	0.227114481838
1	6749	667.160079378031	0.118574234477
1	6758	667.330456198225	0.118574234477
1	6761	667.449030432702	0.20188251363
1	6764	667.567604667179	0.315951315915
1	6769	668.088611045541	0.118574234477
1	6776	668.253719275302	0.118574234477
1	6779	668.372293509779	0.17322567222
1	6784	668.497071648377	0.118574234477
1	6789	669.356473080159	0.118574234477
1	6794	669.550649218158	0.118574234477
1	6799	670.583287624449	0.118574234477
1	6804	671.473020501891	0.118574234477
1	6809	671.751590136077	0.118574234477
1	6814	671.874875579885	0.118574234477
1	6819	673.736870199865	0.118574234477
1	6824	674.933651366443	0.118574234477
1	6831	675.184951447951	0.118574234477
1	6834	675.303525682428	0.142015910085
1	6839	677.231034045035	0.118574234477
1	6844	677.823634468567	0.118574234477
1	6849	677.976950691331	0.118574234477
1	6854	678.760582635564	0.118574234477
1	6859	679.163421263132	0.118574234477
1	6864	679.664225168618	0.118574234477
1	6869	679.845241730392	0.118574234477
1	6874	680.279483752402	0.118574234477
1	6879	681.753803884964	0.118574234477
[...]
7	10148	979.24166880374	0
7	10153	979.586151486908	0
7	10158	980.249388256852	0
7	10165	981.036266027587	0
7	10168	981.154840262064	0
7	10177	982.924969768908	0
7	10180	983.043544003385	0
7	10184	983.269959459152	0
7	10189	983.446101626145	0
7	10194	984.274895502776	0
7	10199	984.946446793768	0
7	10204	985.107469105508	0
7	10209	985.397922575008	0
7	10214	985.673129440648	0
7	10219	986.303793994137	0
7	10224	986.549940746191	0
7	10229	987.059156237157	0
7	10236	988.032391100813	0
7	10239	988.15096533529	0
7	10244	988.618754863826	0
7	10251	989.568654580865	0
7	10254	989.687228815342	0
7	10259	989.908261103107	0
7	10264	990.048327854563	0
7	10271	990.462271000821	0
7	10274	990.580845235298	0
7	10279	991.577713191585	0
7	10284	991.804322673226	0
7	10289	992.070380898959	0
7	10294	993.098195794789	0
7	10299	994.229883461615	0
7	10304	994.417536381927	0
7	10309	995.406744842152	0
7	10314	995.655277709162	0
7	10319	996.058222303993	0
7	10328	996.618173522461	0
7	10333	996.736747756938	0
7	10336	996.855321991415	0
7	10339	996.973896225892	0
7	10344	998.255866885943	0
7	10349	999.427325718395	0
7	10356	999.570787519104	0
7	10361	999.689361753581	0
7	10364	999.807935988058	0
8	11	0.550084476542	0.02248002486
8	21	1.728911138082	0.097790375029
8	26	1.847485372559	0.113194605692
8	46	5.949213647579	0.095341640463
8	66	7.630279897789	0.072622143969
8	76	9.438471473638	0.04272753009
8	146	22.423248554825	0.03678933154
8	151	22.541822789302	0.089659495202
8	183	25.104715021253	0.098890177053
8	186	25.22328925573	0.203576365629
8	200	26.077618037893	0.103186183687
8	203	26.19619227237	0.154332982187
8	206	26.314766506847	0.261857055134
8	226	27.659947125775	0.078225900168
8	241	29.948312219757	0.061726904419
8	251	31.772724058885	0.060305801641
8	343	43.309550043959	0.084607009639
8	346	43.428124278436	0.149545350747
8	357	43.654539734203	0.194252350234
8	359	43.77311396868	0.296253980799
8	362	43.891688203157	0.348028981578
8	389	45.478171048861	0.08813815934
8	392	45.596745283338	0.124768765576
8	397	45.715319517815	0.049773688445
8	402	45.833893752292	0.099814350806
8	427	49.187031310743	0.081875383108
8	442	50.059922316916	0.101118812621
8	477	55.797276319461	0.020425032189
8	527	60.659151423449	0.014720403478
8	542	62.873583687642	0.080509576511
8	607	69.779597342632	0.082392813198
8	612	69.898171577109	0.108910826575
8	682	79.080765746801	0.058177562141
8	704	80.436902254629	0.134607664619
8	718	81.371081564437	0.039976660557
8	743	83.109116831435	0.032318804028
8	778	87.853591597472	0.064579516728
8	783	87.972165831949	0.041279293178
8	808	91.719896555423	0.096438885154
8	848	96.389025658351	0.107609900124
8	853	96.507599892828	0.022583373446
8	913	106.143898606457	0.037519901622
8	973	114.866119434553	0.115911508192
8	983	116.070321024682	0.042205679486
8	988	116.188895259159	0.080234155456
8	993	116.307469493636	0.090737205184
8	1055	120.832513747997	0.199286934238
8	1064	121.902808532511	0.083864818497
8	1074	122.212183558318	0.042220905716
8	1091	123.350820640962	0.02748997863
8	1094	123.469394875439	0.142470921154
8	1114	124.859245008959	0.029951108774
8	1121	124.977819243436	0.030061705097
8	1124	125.096393477913	0.134080249609
8	1159	132.880085092534	0.0762642103
8	1174	134.389490007773	0.032357890726
8	1204	137.655619455849	0.007283895159
8	1209	137.774193690326	0.099400852325
8	1229	140.009077074538	0.028728230764
8	1234	140.127651309015	0.083762325303
8	1259	144.797868739499	0.057303049093
8	1286	146.988775844327	0.092839155998
8	1289	147.107350078804	0.184738993906
8	1304	147.798589367057	0.105627249424
8	1314	148.338201096738	0.093164390523
8	1344	153.194627104484	0.0710080512
8	1354	153.794930760792	0.050520529367
8	1401	159.484231342013	0.114391155164
8	1406	159.71064679778	0.284430064842
8	1410	159.829221032257	0.059559758784
8	1442	162.68006242782	0.068418576727
8	1445	162.798636662297	0.144875140485
8	1480	168.395999492328	0.062615276389
8	1485	168.514573726805	0.108471587936
8	1510	170.939190904987	0.019186733354
8	1520	171.771035751943	0.028783144293
8	1530	172.575440743531	0.019655172916
8	1535	172.694014978008	0.116705036217
8	1565	176.362333522798	0.110674784759
8	1570	176.480907757275	0.117703707603
8	1585	177.148303017605	0.041705433682
8	1590	177.266877252082	0.084396929953
8	1605	177.722328723948	0.068314700144
8	1620	180.001071091766	0.045856547704
8	1645	181.565790621647	0.101827614992
8	1655	181.941725123413	0.059741609467
8	1665	182.373206353867	0.063378600874
8	1670	182.491780588344	0.078710296474
8	1675	182.610354822821	0.111022238093
8	1710	186.393714105861	0.063541602401
8	1725	187.837716445436	0.012004325841
8	1750	190.895919241527	0.103594170211
8	1761	191.37259630901	0.012483806263
8	1766	191.491170543487	0.041967751996
8	1798	194.180446165544	0.096211727449
8	1801	194.299020400021	0.175484618738
8	1811	194.733882432741	0.088786557046
8	1841	197.95903130112	0.113093495123
8	1851	198.54279372642	0.06481871203
8	1866	199.386633351403	0.013726260527
8	1896	201.768595043476	0.038364927625
8	1926	204.23472166648	0.116397257873
8	1931	204.353295900957	0.074090868769
8	1946	206.186075014548	0.113636053914
8	1956	206.596954010394	0.02459348591
8	1986	208.871632556939	0.102919623027
8	2006	211.861777659474	0.08926513813
8	2016	212.207301086468	0.048085234812
8	2031	212.870174427435	0.059431129926
8	2041	213.478740889786	0.005178194866
8	2048	213.597315124263	0.117216789703
8	2053	213.71588935874	0.233923825566
8	2056	213.834463593217	0.127370385222
8	2167	225.847096759094	0.064325448496
8	2207	229.138850492767	0.072487311867
8	2227	230.824460752474	0.044572872647
8	2232	230.943034986951	0.08746557406
8	2247	232.066168591596	0.061971798963
8	2252	232.184742826073	0.072115868107
8	2267	234.111795135642	0.008556535145
8	2272	234.230369370119	0.045969840788
8	2312	238.071480850002	0.110745950054
8	2322	238.408974511181	0.081856970422
8	2334	239.418647091442	0.109141694054
8	2337	239.537221325919	0.129553420924
8	2342	239.655795560396	0.105334361537
8	2347	239.774369794873	0.014306693382
8	2357	240.099009807654	0.109512546785
8	2382	241.866435628442	0.082099919516
8	2412	245.214444655297	0.083130213074
8	2422	246.468475650555	0.008061805063
8	2459	250.220219883341	0.192618359149
8	2478	251.770654979927	0.087874899541
8	2523	254.97759089662	0.060555010735
8	2543	256.445297800413	0.098558585056
8	2548	256.56387203489	0.108794904383
8	2553	256.682446269367	0.042053368209
8	2560	256.801020503844	0.052671388497
8	2563	256.919594738321	0.150666780838
8	2578	260.271782974606	0.045438099167
8	2630	266.000069764837	0.067218792808
8	2635	266.118643999314	0.137227410911
8	2638	266.237218233791	0.179626888732
8	2703	272.846331223674	0.114408994879
8	2793	282.171488708818	0.008675604314
8	2803	282.66197500879	0.093635930201
8	2810	282.888390464557	0.176336877497
8	2904	290.57527047936	0.033079848368
8	2919	291.613594473154	0.078082892982
8	2929	292.238828400301	0.027550819769
8	2944	293.151666805822	0.005632809218
8	2974	297.344635791941	0.04752159412
8	2984	297.662459354399	0.034835124684
8	3004	300.920045838589	0.095234595931
8	3024	302.703667518688	0.022579821808
8	3059	308.040970168152	0.083815606568
8	3084	310.677355232884	0.027362433205
8	3114	312.469760671124	0.098791091455
8	3124	313.255390968239	0.058381819848
8	3139	314.511411605904	0.101877765633
8	3165	320.015543003162	0.107047004344
8	3170	320.134117237639	0.107046420302
8	3190	321.394352592379	0.116849300493
8	3210	322.791932732202	0.077856534479
8	3225	323.662228076991	0.024415997624
8	3250	325.243106423666	0.063028674658
8	3270	326.637777569059	0.106460156036
8	3280	327.539025499261	0.07401057633
8	3365	334.089234366807	0.103001731012
8	3399	337.751248641031	0.110545457146
8	3402	337.869822875508	0.159170981612
8	3405	337.988397109985	0.245537949572
8	3415	338.38578707554	0.110409129561
8	3420	338.504361310017	0.000350871031
8	3430	339.168197777129	0.005439726528
8	3440	340.092789208768	0.005537681707
8	3462	341.780529216667	0.008553698341
8	3465	341.899103451144	0.120309324773
8	3505	345.773141725944	0.041382435722
8	3521	346.355853367275	0.020407633203
8	3531	348.768147531902	0.08625268896
8	3561	354.6479918866	0.019777931557
8	3591	357.202871687243	0.11687616549
8	3621	358.403068145568	0.02937778326
8	3631	358.913159048224	0.019614284699
8	3666	362.482169114149	0.03986299037
8	3696	365.203890245005	0.058909433304
8	3726	368.462380731109	0.000371082042
8	3791	375.978855063916	0.045528413962
8	3806	377.248868109634	0.068874619116
8	3826	378.726194859367	0.033165771334
8	3836	379.067853470647	0.073893046218
8	3882	383.543675767132	0.009525895492
8	3897	385.279829874458	0.062146348642
8	3919	387.609666112335	0.105470731222
8	3922	387.728240346812	0.169428272175
8	3947	389.430820208119	0.10115318012
8	3962	389.941629058259	0.022967564707
8	4067	403.56655764041	0.058690996429
8	4102	408.227502613214	0.045397345656
8	4127	412.051614666837	0.099882331918
8	4152	414.15542202976	0.11439254146
8	4172	415.772333012578	0.04921291273
8	4182	416.482981407099	0.008364244926
8	4202	418.394980851653	0.06700300023
8	4223	420.761058710511	0.023014026274
8	4273	425.403081240861	0.07005334771
8	4278	425.521655475338	0.012476639995
8	4283	425.640229709815	0.074568110825
8	4318	429.80598316059	0.091493338909
8	4333	432.001973985855	0.030308018959
8	4350	432.967321556351	0.082937017154
8	4353	433.085895790828	0.170383624309
8	4383	435.150050159483	0.113560874683
8	4398	435.82190221503	0.069331986754
8	4448	440.259786283213	0.101831763286
8	4488	444.088547175421	0.10349458873
8	4548	450.046740224759	0.003027991315
8	4569	451.262034183799	0.018786232391
8	4611	455.194963352918	0.105878505637
8	4614	455.313537587395	0.143877488161
8	4626	455.577456564891	0.096975284895
8	4629	455.696030799368	0.179686824573
8	4634	455.814605033845	0.101636402721
8	4659	457.849527080488	0.071677609161
8	4669	458.72960689746	0.025815240295
8	4679	459.205495553382	0.117297087364
8	4694	460.992038002044	0.086363828168
8	4709	463.273629521873	0.040908656768
8	4744	466.002375545947	0.056673069616
8	4754	467.295550967001	0.102934943104
8	4769	467.972949774951	0.079686060875
8	4776	468.091524009428	0.007794377571
8	4779	468.210098243905	0.118762086937
8	4784	468.328672478382	0.016690961652
8	4789	468.447246712859	0.020832426111
8	4799	469.103446167587	0.057808427196
8	4819	470.791951269702	0.015596441108
8	4834	473.130365173343	0.043588735238
8	4839	473.24893940782	0.035815007365
8	4851	474.451878813711	0.060981986393
8	4854	474.570453048188	0.122267539969
8	4886	477.819372267324	0.015354987041
8	4889	477.937946501801	0.126093352925
8	4909	479.651165472542	0.059119589229
8	4935	482.270526053858	0.054782615326
8	5005	486.946562069909	0.01723236434
8	5025	488.061826673804	0.072521610287
8	5115	499.4514572115	0.092743130046
8	5125	500.232872483133	0.086806657322
8	5135	500.979945855282	0.073513805637
8	5150	502.760806900702	0.002971935986
8	5155	502.879381135179	0.077377106113
8	5200	507.801884772412	0.074910385741
8	5210	508.961680253238	0.068712206965
8	5235	511.505799306977	0.094480532065
8	5240	511.624373541454	0.115087847888
8	5245	511.742947775931	0.027183782662
8	5250	511.861522010408	0.11691851831
8	5267	512.576565073592	0.108187729956
8	5296	516.168894475125	0.058783539171
8	5306	516.806957692093	0.006952150493
8	5336	520.430422599236	0.065001676993
8	5381	523.727921993586	0.091498760246
8	5406	525.844266489749	0.035101256974
8	5441	529.220027663396	0.006410536445
8	5446	529.338601897873	0.058527188888
8	5466	530.583880226719	0.034998717737
8	5471	530.702454461196	0.046531680681
8	5476	530.821028695673	0.007361619506
8	5491	534.030585135819	0.064402658714
8	5541	539.767889223395	0.098041447816
8	5551	540.247156687583	0.112165855375
8	5581	543.844244925317	0.063180479203
8	5618	546.684262655865	0.204001442925
8	5712	562.566027543074	0.118132284745
8	5797	571.098781692797	0.063816359771
8	5832	574.234236787962	0.062373826626
8	5862	577.333356373219	0.093659533026
8	5969	587.485306536491	0.063190932963
8	5998	589.799926804935	0.062663131166
8	6070	596.570896476091	0.078768892476
8	6073	596.689470710568	0.132414620714
8	6083	596.963341924719	0.081474068393
8	6088	597.081916159196	0.116022438724
8	6103	598.329486706395	0.03076283706
8	6108	598.448060940872	0.082248608908
8	6133	602.340324886164	0.04438923336
8	6138	602.458899120641	0.100581074467
8	6173	605.253889127184	0.091416550642
8	6188	605.865492511065	0.095350647773
8	6255	611.99978765285	0.019135394804
8	6258	612.118361887327	0.127279710166
8	6263	612.236936121804	0.105205107751
8	6273	612.854551044744	0.069310162558
8	6303	616.109225805531	0.087455769588
8	6313	616.593941389806	0.031708936721
8	6329	619.308339760386	0.045002028763
8	6349	622.081032760856	0.039447778851
8	6429	630.221573496658	0.069207416276
8	6441	631.101858838367	0.104536548183
8	6444	631.220433072844	0.129070389654
8	6449	631.339007307321	0.080009523863
8	6479	634.799949587691	0.046604616121
8	6559	646.072437786396	0.042748984962
8	6589	648.964994637009	0.118077951073
8	6629	653.85965222331	0.110045731381
8	6664	659.02154349544	0.102819821796
8	6671	659.247958951207	0.13796185063
8	6695	660.941536255245	0.059917449839
8	6730	666.045891472355	0.104525430527
8	6740	666.29527105061	0.108540247361
8	6757	667.330456198225	0.083308279153
8	6760	667.449030432702	0.197377081438
8	6775	668.253719275302	0.054651437743
8	6830	675.184951447951	0.023441675608
8	6894	682.905771775946	0.081583048642
8	6899	683.024346010423	0.190085169274
8	6902	683.1429202449	0.300998681169
8	6905	683.261494479377	0.266508428531
8	6910	683.380068713854	0.005531066328
8	6915	683.498642948331	0.084929362689
8	6955	688.247637528614	0.061187094841
8	6985	691.030032462649	0.041286353851
8	7000	692.15730500485	0.072963390072
8	7033	694.848036199591	0.086158593526
8	7036	694.966610434068	0.18388028933
8	7056	696.726047127744	0.077113395782
8	7076	698.297985760283	0.035028820983
8	7096	700.575651014283	0.008850031926
8	7108	701.098862811664	0.10769674195
8	7113	701.217437046141	0.221974573975
8	7118	701.336011280618	0.233790622205
8	7123	701.454585515095	0.127275721877
8	7126	701.573159749572	0.190456620505
8	7136	702.229180214354	0.008430811482
8	7196	708.339756820392	0.038015875211
8	7221	711.050432634251	0.008521965366
8	7238	712.493085942581	0.045838772709
8	7241	712.611660177058	0.163907754083
8	7256	714.316058852452	0.105310872474
8	7311	719.200904064854	0.064345720894
8	7341	722.18576344199	0.0995504524
8	7361	724.727122082351	0.069436480008
8	7389	727.203435646463	0.063098395489
8	7394	727.32200988094	0.137250854355
8	7397	727.440584115417	0.14007184972
8	7424	729.475869979271	0.102958013021
8	7427	729.594444213748	0.167210836177
8	7482	735.194463890656	0.096874452023
8	7502	736.254988431661	0.113129032311
8	7522	737.215219846329	0.06735857455
8	7574	742.889895709483	0.11533703838
8	7577	743.00846994396	0.22838111008
8	7602	745.105463835207	0.051803326057
8	7612	745.602616554684	0.098916937542
8	7632	747.362467362269	0.086755796346
8	7637	747.481041596746	0.008234752087
8	7652	748.145399545705	0.067886189513
8	7657	748.263973780182	0.109868878852
8	7712	756.02526633269	0.004328180914
8	7758	760.663999933119	0.107774628431
8	7773	761.185322561645	0.080348155877
8	7778	761.303896796122	0.013259661251
8	7833	766.440732526112	0.063531054578
8	7838	766.559306760589	0.094231273716
8	7848	767.104016912674	0.095597011606
8	7863	767.848776832781	0.033966817156
8	7878	769.822756395859	0.001192856744
8	8003	781.565960651673	0.066125415797
8	8045	786.153850120006	0.075693578902
8	8048	786.272424354483	0.189788752767
8	8099	789.747709878654	0.021888413829
8	8114	790.774092036549	0.053078615142
8	8121	790.892666271026	0.09304670963
8	8124	791.011240505503	0.208753838923
8	8149	792.71078012462	0.072501590992
8	8169	795.007810484916	0.043484639401
8	8189	795.859908799044	0.085979589864
8	8204	796.499594026266	0.068390965806
8	8224	797.79343428924	0.041080963117
8	8279	804.729358610951	0.000692672244
8	8284	804.847932845428	0.087622794378
8	8289	804.966507079905	0.087263262394
8	8294	805.085081314382	0.034599043914
8	8319	807.837860860818	0.044216320828
8	8324	807.956435095295	0.092385589707
8	8339	809.801637628243	0.1140092028
8	8344	809.92021186272	0.020782704294
8	8356	810.209043899216	0.039480621384
8	8359	810.327618133693	0.14502489559
8	8364	810.44619236817	0.034037232566
8	8379	810.834726272412	0.04102840749
8	8450	818.118402110113	0.051716545367
8	8472	820.600334979738	0.092018536837
8	8477	820.718909214215	0.170746065611
8	8480	820.837483448692	0.189674584
8	8545	828.175081146509	0.116869481616
8	8600	833.847267516561	0.045477911962
8	8610	834.224130490294	0.083448517199
8	8625	836.500035403498	0.105239878646
8	8630	836.618609637975	0.103122975341
8	8670	841.675965956199	0.089617022128
8	8675	841.794540190676	0.110673379708
8	8690	843.274151165104	0.011579473452
8	8765	853.209112949697	0.115655544109
8	8770	853.327687184174	0.039549974314
8	8786	854.720531201224	0.016071959066
8	8833	861.038577017103	0.050159078745
8	8836	861.15715125158	0.152201390402
8	8866	865.85939216839	0.101725019833
8	8878	866.20227698072	0.091067848576
8	8887	866.320851215197	0.131953398018
8	8890	866.439425449674	0.183047422788
8	8893	866.557999684151	0.287449875343
8	8898	866.676573918628	0.371179987883
8	8901	866.795148153105	0.124876143907
8	8921	868.200877124551	0.097479355267
8	8926	868.319451359028	0.089350348026
8	8951	870.02297038096	0.011200691361
8	8956	870.141544615437	0.081600920536
8	8996	873.777856746814	0.051601955954
8	9056	880.108253730638	0.06252422077
8	9076	881.122640858228	0.052625556468
8	9128	885.218026746602	0.107236200947
8	9142	886.377760741286	0.008597677368
8	9147	886.496334975763	0.091798000187
8	9202	891.765189880868	0.114696916779
8	9212	892.256589688133	0.102939564836
8	9222	893.065331725682	0.067797896723
8	9237	893.92552587761	0.038622541254
8	9267	895.748622170169	0.047338035421
8	9304	899.092481870477	0.092663376736
8	9307	899.211056104954	0.171623275085
8	9312	899.329630339431	0.043432645991
8	9329	900.713082781584	0.110463721659
8	9332	900.831657016061	0.125901802719
8	9337	900.950231250538	0.10542490574
8	9362	903.232387315621	0.033692898316
8	9367	903.350961550098	0.032051403747
8	9387	904.520695814624	0.077195912123
8	9397	905.096350079486	0.022319183025
8	9432	909.456950732338	0.113973162513
8	9479	914.292132103985	0.110099393946
8	9493	915.722243947261	0.071706913676
8	9603	929.229390756217	0.02160720633
8	9613	930.13714116767	0.088076306565
8	9673	937.468827254091	0.109985186013
8	9703	940.777554546	0.035622175762
8	9738	945.703410073327	0.065146818972
8	9748	946.823059562044	0.067908978922
8	9813	951.547376469078	0.113905530281
8	9818	951.665950703555	0.002478730223
8	9830	953.030115774423	0.051491806393
8	9859	956.402036222784	0.115009485906
8	9874	957.117421815415	0.028854244845
8	9879	957.235996049892	0.079367275012
8	9884	957.354570284369	0.078267740597
8	9889	957.473144518846	0.04656278647
8	9909	958.975306914498	0.02494943221
8	9934	961.242420108431	0.100412903947
8	9939	961.360994342908	0.045981165584
8	9954	962.096868470937	0.042105464326
8	9959	962.215442705414	0.048670761535
8	9964	962.334016939891	0.066131404272
8	10019	970.888839301373	0.001847813026
8	10029	971.173507895794	0.064055871277
8	10041	972.066840793488	0.047825447336
8	10044	972.185415027965	0.135839920823
8	10061	972.683461097557	0.114499518502
8	10064	972.802035332034	0.124576511064
8	10074	973.684891345786	0.014037911017
8	10084	973.991433690398	0.096049586692
8	10114	975.980736589396	0.06075951
8	10124	976.469290223758	0.071613390319
8	10134	976.889478664648	0.085467626468
8	10164	981.036266027587	0.105050186188
8	10176	982.924969768908	0.048348167379
8	10181	983.151385224675	0.274562568159
8	10235	988.032391100813	0.007713591903
8	10250	989.568654580865	0.098621937502
8	10270	990.462271000821	0.027339348231
8	10327	996.618173522461	0.057075048517
8	10332	996.736747756938	0.124194433427
8	10335	996.855321991415	0.168180212783
8	10355	999.570787519104	0.038409749198
8	10360	999.689361753581	0.025837830165

