version 2
run General-248-20240201-11:04:24-40057
attr configname General
attr datetime 20240201-11:04:24
attr experiment General
attr inifile main.ini
attr iterationvars "$0=1.2, $1=1.7, $2=30"
attr iterationvarsf 1.2,1.7,30-
attr measurement "$0=1.2, $1=1.7, $2=30"
attr network Rete
attr processid 40057
attr repetition 8
attr replication #8
attr resultdir results
attr runnumber 248
attr seedset 248
param Rete.lambda 1.2
param Rete.a 0.3s
param Rete.b 1.7s
param Rete.c 0.1s
param Rete.d 0.3s
param Rete.mu 3.0
param Rete.source2.interArrivalTime exponential(1s/lambda)
param Rete.source2.jobServiceTime exponential(1s/mu)
param Rete.source2.deadline uniform(a,b)
param Rete.server2.j 30
param Rete.server2.V uniform(c,d)

vector 0 Rete.passiveQueue queueLength:vector ETV
attr interpolationmode sample-hold
attr title "queue length, vector"
vector 1 Rete.passiveQueue queueingTime:vector ETV
attr interpolationmode none
attr title "queueing time at dequeue, vector"
attr unit s
vector 2 Rete.sink lifeTime:vector ETV
attr interpolationmode none
attr title "lifetime of arrived jobs, vector"
attr unit s
vector 3 Rete.sink totalQueueingTime:vector ETV
attr interpolationmode none
attr title "the total time spent in queues by arrived jobs, vector"
attr unit s
vector 4 Rete.sink queuesVisited:vector ETV
attr interpolationmode none
attr title "the total number of queues visited by arrived jobs, vector"
vector 5 Rete.sink totalServiceTime:vector ETV
attr interpolationmode none
attr title "the total time spent  by arrived jobs, vector"
attr unit s
vector 6 Rete.sink totalDelayTime:vector ETV
attr interpolationmode none
attr title "the total time spent in delay nodes by arrived jobs, vector"
attr unit s
vector 7 Rete.sink delaysVisited:vector ETV
attr interpolationmode none
attr title "the total number of delays visited by arrived jobs, vector"
vector 8 Rete.sink generation:vector ETV
attr interpolationmode none
attr title "the generation of the arrived jobs, vector"
0	0	0	0
0	5	1.005986564549	1
0	6	1.202562166102	0
0	45	12.233735268263	1
0	46	12.274806415144	0
0	50	12.280872172043	1
0	51	12.496025201858	0
0	65	13.213202381947	1
0	66	13.371028410981	0
0	75	14.446772235731	1
0	76	14.534025445141	0
0	90	16.234284173321	1
0	91	16.238881315759	0
0	100	17.041986042073	1
0	101	17.210091928092	0
0	130	21.185356748783	1
0	131	21.388134752476	0
0	181	34.90828323587	1
0	182	35.092776696295	0
0	231	46.668180425277	1
0	232	46.870533842874	0
0	291	56.420320930229	1
0	292	56.622872125174	0
0	372	70.415641038806	1
0	373	70.497350901257	0
0	392	74.010811568268	1
0	394	74.108675509167	2
0	395	74.20656805177	1
0	398	74.427786838484	0
0	402	74.508253126236	1
0	403	74.649005625198	0
0	407	74.737406090469	1
0	408	74.870224411912	0
0	417	75.200657910106	1
0	418	75.316478963315	0
0	422	75.404424324515	1
0	423	75.537697750029	0
0	442	78.590760777096	1
0	443	78.790395564457	0
0	528	100.931251201102	1
0	529	101.059208400799	0
0	548	103.92637566479	1
0	549	104.0358205975	0
0	558	106.67668589419	1
0	559	106.847896908578	0
0	573	108.505518673151	1
0	575	108.536814816958	2
0	576	108.725149772346	1
0	579	108.94636855906	0
0	583	109.162684183306	1
0	584	109.167587345774	0
0	588	109.187278287421	1
0	589	109.388806132488	0
0	598	111.913303991891	1
0	599	111.980375728307	0
0	644	118.478898902817	1
0	646	118.491360947833	2
0	648	118.512977003584	3
0	650	118.664267169715	4
0	651	118.684243968832	3
0	654	118.905462755546	2
0	657	119.12668154226	1
0	660	119.347900328974	0
0	674	122.337556078765	1
0	675	122.406474118478	0
0	689	126.544182563685	1
0	691	126.643087732462	2
0	692	126.668728206285	1
0	695	126.889946992999	0
0	704	128.631237796451	1
0	705	128.810818802874	0
0	709	129.006069301174	1
0	710	129.032037589588	0
0	729	130.801346665058	1
0	730	130.997167629112	0
0	744	133.562613632581	1
0	745	133.652416089664	0
0	749	133.725238286356	1
0	750	133.873634876378	0
0	754	133.920209328137	1
0	757	134.290959722476	0
0	770	138.751705220051	1
0	771	138.95613916038	0
0	775	138.98770963202	1
0	776	139.177357947094	0
0	780	139.257933022324	1
0	782	139.374012766099	2
0	783	139.398576733808	1
0	786	139.619795520522	0
0	790	139.662852457516	1
0	792	139.743742812399	2
0	793	139.841014307236	1
0	796	140.06223309395	0
0	815	144.348246104985	1
0	816	144.526301193472	0
0	880	153.502893896505	1
0	881	153.517146191334	0
0	895	156.387754033358	1
0	896	156.57812174753	0
0	931	161.322710787483	1
0	932	161.365744847805	0
0	941	162.516838936912	1
0	942	162.55247103718	0
0	946	162.67213606618	1
0	947	162.773689823894	0
0	966	168.409471707648	1
0	968	168.494512724	2
0	969	168.504602214359	1
0	972	168.725821001073	0
0	991	170.596598257565	1
0	992	170.790070288282	0
0	1001	172.1788433776	1
0	1003	172.346600528992	2
0	1004	172.383512498266	1
0	1007	172.60473128498	0
0	1021	179.46674395906	1
0	1022	179.567925501344	0
0	1026	179.599725663364	1
0	1027	179.789144288058	0
0	1031	179.808566613338	1
0	1032	180.010363074772	0
0	1036	180.192367759215	1
0	1037	180.231581861486	0
0	1046	181.583109658878	1
0	1047	181.673520188347	0
0	1051	181.868213046051	1
0	1052	181.894738975061	0
0	1067	187.995447145753	1
0	1068	188.180748210494	0
0	1082	191.57656107654	1
0	1083	191.597217574343	0
0	1087	191.817329086087	1
0	1088	191.818436361057	0
0	1127	197.484474331641	1
0	1128	197.492776809331	0
0	1132	197.538230219375	1
0	1133	197.713995596045	0
0	1147	200.774879183745	1
0	1148	200.839243582187	0
0	1167	207.236809500633	1
0	1168	207.323610421516	0
0	1172	207.534670154668	1
0	1173	207.54482920823	0
0	1218	215.164278205385	1
0	1219	215.364623615775	0
0	1253	223.094222347008	1
0	1254	223.23600073588	0
0	1273	227.210085380489	1
0	1274	227.255839346474	0
0	1278	227.415913121719	1
0	1279	227.477058133188	0
0	1288	228.568864260288	1
0	1289	228.592545406291	0
0	1293	228.764690290634	1
0	1294	228.813764193005	0
0	1328	233.130887375814	1
0	1330	233.176193623983	2
0	1331	233.191334683435	1
0	1334	233.412553470149	0
0	1338	233.421903465659	1
0	1339	233.633772256863	0
0	1369	237.327972645542	1
0	1371	237.417765952717	2
0	1372	237.49020454864	1
0	1376	237.619731542653	2
0	1377	237.711423335354	1
0	1380	237.932642122068	0
0	1394	242.591873044548	1
0	1395	242.809209046283	0
0	1399	242.929844854805	1
0	1400	243.030427832997	0
0	1409	243.631973336198	1
0	1410	243.731260802762	0
0	1419	244.255050012051	1
0	1420	244.375112860037	0
0	1424	244.405207581704	1
0	1426	244.472811127059	2
0	1427	244.596331646751	1
0	1430	244.817550433465	0
0	1434	244.852164548382	1
0	1435	245.038769220179	0
0	1459	250.417763094788	1
0	1460	250.615311679251	0
0	1484	253.386532386454	1
0	1485	253.501863751086	0
0	1520	259.673771370743	1
0	1521	259.748442828002	0
0	1540	264.399648341113	1
0	1541	264.55497899887	0
0	1555	268.250991431937	1
0	1556	268.382392834983	0
0	1565	268.625270694417	1
0	1567	268.678479643223	2
0	1569	268.700653391256	3
0	1570	268.828645318739	2
0	1573	269.049864105453	1
0	1576	269.271082892167	0
0	1585	270.014641692	1
0	1586	270.213136310339	0
0	1595	271.448446560559	1
0	1596	271.46640410279	0
0	1615	276.973459651273	1
0	1616	277.078760411379	0
0	1640	281.603498026131	1
0	1641	281.734386041831	0
0	1645	281.862972825383	1
0	1646	281.955604828545	0
0	1655	283.244692173543	1
0	1656	283.45389989949	0
0	1671	284.299268993008	1
0	1672	284.502800735677	0
0	1706	293.502204441443	1
0	1707	293.719952177888	0
0	1731	295.360874636915	1
0	1732	295.579379626148	0
0	1741	296.197546346467	1
0	1742	296.401969202798	0
0	1813	310.084784334556	1
0	1814	310.085395673631	0
0	1847	320.509454934351	1
0	1849	320.528845716797	2
0	1850	320.550968168507	1
0	1853	320.772186955221	0
0	1862	321.224562497248	1
0	1863	321.289155142119	0
0	1872	323.070109210857	1
0	1873	323.071115368225	0
0	1882	323.616284511927	1
0	1883	323.61796437529	0
0	1892	324.755913062846	1
0	1893	324.816948950639	0
0	1902	325.381345589525	1
0	1904	325.43249003366	2
0	1905	325.500926310266	1
0	1909	325.560878034944	2
0	1910	325.72214509698	1
0	1913	325.943363883694	0
0	1964	335.175330189857	1
0	1965	335.290429456225	0
0	2003	344.784818765676	1
0	2004	344.816392866052	0
0	2013	347.627172463736	1
0	2014	347.700657203948	0
0	2048	353.226217142855	1
0	2049	353.228600229043	0
0	2083	362.579200790887	1
0	2084	362.760533319366	0
0	2115	371.314105725194	1
0	2116	371.320737732306	0
0	2139	373.976803609231	1
0	2141	373.999596194245	2
0	2142	374.057914299168	1
0	2145	374.279133085882	0
0	2159	375.043488459422	1
0	2161	375.04459656554	2
0	2162	375.204230939763	1
0	2166	375.365515345137	2
0	2168	375.396845211885	3
0	2169	375.425449726477	2
0	2172	375.646668513191	1
0	2176	375.842988291802	2
0	2177	375.867887299905	1
0	2180	376.089106086619	0
0	2184	376.209113304279	1
0	2185	376.310324873333	0
0	2189	376.355152072325	1
0	2190	376.531543660047	0
0	2199	377.130157098208	1
0	2200	377.225458151502	0
0	2239	387.687780107606	1
0	2240	387.75609435648	0
0	2254	390.186221777213	1
0	2255	390.353440134853	0
0	2280	393.076560248121	1
0	2281	393.239721217221	0
0	2295	395.416447547823	1
0	2297	395.589566607963	2
0	2298	395.608373559383	1
0	2301	395.829592346097	0
0	2305	395.966149285013	1
0	2306	396.050811132811	0
0	2350	400.980549959955	1
0	2351	401.1950944225	0
0	2370	405.039539572614	1
0	2371	405.098259945948	0
0	2375	405.268107817012	1
0	2376	405.319478732662	0
0	2395	409.903083685398	1
0	2396	410.084558822054	0
0	2417	413.679670205189	1
0	2418	413.773912840363	0
0	2451	422.866869483364	1
0	2452	422.903585589882	0
0	2481	431.753670055997	1
0	2482	431.840141673342	0
0	2491	434.089997001863	1
0	2492	434.225073649652	0
0	2511	436.504480721698	1
0	2512	436.589960798739	0
0	2516	436.806480162448	1
0	2517	436.811179585453	0
0	2572	444.297120030708	1
0	2573	444.46100561771	0
0	2587	445.634872694887	1
0	2588	445.749364575496	0
0	2592	445.808316831822	1
0	2594	445.913460399232	2
0	2595	445.97058336221	1
0	2598	446.191802148924	0
0	2612	447.736755414123	1
0	2613	447.867408377181	0
0	2617	447.920389894802	1
0	2618	448.088627163895	0
0	2627	448.90497621778	1
0	2628	449.096863238604	0
0	2687	464.943324778052	1
0	2688	465.159314268819	0
0	2692	465.314953125777	1
0	2693	465.380533055533	0
0	2728	474.457941528564	1
0	2729	474.602273352976	0
0	2738	475.822961599421	1
0	2739	475.833960572969	0
0	2753	479.270779869997	1
0	2754	479.335803837643	0
0	2778	482.87980180528	1
0	2779	482.896575477411	0
0	2793	485.717992978429	1
0	2794	485.897256842272	0
0	2798	486.049689657243	1
0	2799	486.118475628986	0
0	2803	486.226230638848	1
0	2804	486.3396944157	0
0	2823	488.386472697973	1
0	2824	488.467339704806	0
0	2853	495.855723474151	1
0	2855	495.894923338195	2
0	2856	495.978574143515	1
0	2860	496.050173225349	2
0	2862	496.111291513959	3
0	2863	496.199792930229	2
0	2866	496.421011716943	1
0	2871	496.838336563041	0
0	2879	497.337967451067	1
0	2880	497.50351937675	0
0	2884	497.67734943667	1
0	2886	497.680822926281	2
0	2887	497.724738163464	1
0	2890	497.945956950178	0
0	2909	499.400189483257	1
0	2910	499.538599622322	0
0	2924	501.488729128282	1
0	2925	501.546174973072	0
0	2929	501.552257748602	1
0	2930	501.767393759786	0
0	2934	501.869179420766	1
0	2935	501.9886125465	0
0	2944	503.516763828881	1
0	2945	503.674909522375	0
0	2954	504.812633373153	1
0	2955	505.014351818839	0
0	2969	508.327556757447	1
0	2970	508.401432496821	0
0	2989	510.876243979117	1
0	2991	510.8831202906	2
0	2992	511.005805202949	1
0	2995	511.227023989663	0
0	2999	511.42183601878	1
0	3000	511.448242776377	0
0	3019	515.026225513396	1
0	3022	515.406936526194	0
0	3025	515.470491715391	1
0	3026	515.628155312908	0
0	3030	515.650211929641	1
0	3032	515.815550066299	2
0	3033	515.849374099622	1
0	3036	516.070592886336	0
0	3040	516.158651694223	1
0	3041	516.29181167305	0
0	3055	519.407196713141	1
0	3056	519.611856666028	0
0	3065	520.510502172058	1
0	3066	520.640591150282	0
0	3070	520.667263023801	1
0	3071	520.861809936996	0
0	3090	522.894870427965	1
0	3091	523.014798536101	0
0	3130	529.120101830825	1
0	3131	529.239283459619	0
0	3176	537.698489852465	1
0	3178	537.749408072373	2
0	3179	537.915953892837	1
0	3183	537.972563851918	2
0	3184	538.137172679551	1
0	3187	538.358391466265	0
0	3201	541.33126219105	1
0	3202	541.431452288338	0
0	3271	553.185257251591	1
0	3272	553.304396494366	0
0	3276	553.494375315942	1
0	3277	553.52561528108	0
0	3281	553.608380056101	1
0	3282	553.746834067794	0
0	3286	553.934701131373	1
0	3287	553.968052854508	0
0	3296	554.692054780755	1
0	3297	554.697248279973	0
0	3323	558.052614297511	1
0	3324	558.071066115906	0
0	3327	558.205802217589	1
0	3328	558.29228490262	0
0	3342	559.943992604039	1
0	3343	560.08214835201	0
0	3362	563.180091996937	1
0	3363	563.30796617667	0
0	3367	563.450025192305	1
0	3368	563.529184963384	0
0	3377	565.382876184724	1
0	3378	565.598607103877	0
0	3417	570.922384220784	1
0	3418	571.064855052781	0
0	3432	572.834746551077	1
0	3433	572.982284029149	0
0	3442	574.191411962317	1
0	3443	574.341555227947	0
0	3462	579.131890386334	1
0	3463	579.302811731103	0
0	3474	582.45798813543	1
0	3475	582.597481199871	0
0	3478	582.639673548389	1
0	3479	582.818699986585	0
0	3483	583.035454120653	1
0	3485	583.036480624226	2
0	3486	583.039918773299	1
0	3489	583.261137560013	0
0	3518	589.324740322172	1
0	3519	589.418883902957	0
0	3543	595.69657369523	1
0	3544	595.895925126745	0
0	3603	604.406988167145	1
0	3604	604.426744377012	0
0	3613	605.200439092588	1
0	3614	605.319198477298	0
0	3659	615.728454652492	1
0	3660	615.931704431896	0
0	3664	616.06050397748	1
0	3665	616.15292321861	0
0	3684	623.669985813403	1
0	3685	623.676686235378	0
0	3689	623.830275207629	1
0	3690	623.897905022092	0
0	3699	624.524202220485	1
0	3700	624.534682316432	0
0	3729	627.152832748958	1
0	3730	627.211882860942	0
0	3744	628.611030522825	1
0	3745	628.72916294486	0
0	3749	628.73834117327	1
0	3750	628.950381731574	0
0	3810	638.969759477409	1
0	3811	639.077995632131	0
0	3820	639.488587697217	1
0	3821	639.585499825176	0
0	3825	639.700951287691	1
0	3826	639.80671861189	0
0	3875	647.595287215486	1
0	3876	647.734090516064	0
0	3895	650.485156523499	1
0	3896	650.497815105914	0
0	3900	650.553471321449	1
0	3901	650.719033892628	0
0	3905	650.800308462011	1
0	3906	650.940252679342	0
0	3925	656.077696413158	1
0	3928	656.457534849994	0
0	3941	659.094067908916	1
0	3943	659.116822740128	2
0	3944	659.221057214723	1
0	3947	659.442276001437	0
0	3951	659.495995244374	1
0	3952	659.663494788151	0
0	3981	664.60736444223	1
0	3982	664.618871616895	0
0	4006	668.141922572851	1
0	4007	668.226799002447	0
0	4026	670.899829809089	1
0	4027	670.965092697107	0
0	4041	672.909941413702	1
0	4042	672.985176074451	0
0	4051	673.350236530933	1
0	4053	673.521197568059	2
0	4054	673.553390290052	1
0	4057	673.774609076766	0
0	4078	676.996916586609	1
0	4079	677.13732208554	0
0	4147	692.227614458223	1
0	4148	692.232531973629	0
0	4157	692.555606797714	1
0	4158	692.72293704783	0
0	4177	695.302174798882	1
0	4178	695.336481702547	0
0	4182	695.354398018481	1
0	4183	695.557700489261	0
0	4187	695.740080961764	1
0	4188	695.778919275975	0
0	4192	695.88363384553	1
0	4193	696.000138062689	0
0	4197	696.035503081131	1
0	4198	696.221356849403	0
0	4202	696.392232553362	1
0	4203	696.442575636117	0
0	4212	697.401180693731	1
0	4214	697.428514951841	2
0	4216	697.507881802555	3
0	4217	697.535854821405	2
0	4220	697.757073608119	1
0	4223	697.978292394833	0
0	4227	698.143045904319	1
0	4230	698.395617240931	0
0	4233	698.57289992011	1
0	4234	698.616836027645	0
0	4238	698.658680082622	1
0	4239	698.838054814359	0
0	4243	698.988806090744	1
0	4244	699.059273601073	0
0	4283	703.717947311883	1
0	4285	703.719962105661	2
0	4286	703.764392018499	1
0	4289	703.985610805213	0
0	4313	706.047246209334	1
0	4314	706.063491031131	0
0	4328	707.914465836271	1
0	4329	707.951619931887	0
0	4338	711.894651225559	1
0	4339	711.933134239406	0
0	4348	712.507129526621	1
0	4349	712.653611452949	0
0	4353	712.706094064258	1
0	4355	712.823049577904	2
0	4356	712.874830239663	1
0	4360	712.935018954839	2
0	4362	712.94378246441	3
0	4363	713.096049026377	2
0	4366	713.317267813091	1
0	4370	713.536694512764	2
0	4371	713.538486599805	1
0	4375	713.623657346228	2
0	4377	713.691702273466	3
0	4378	713.759705386519	2
0	4382	713.819813278613	3
0	4385	714.177030232617	2
0	4387	714.398249019331	1
0	4390	714.619467806045	0
0	4399	715.052154425717	1
0	4400	715.122184348799	0
0	4404	715.154102854218	1
0	4405	715.343403135513	0
0	4439	718.944616345383	1
0	4440	719.125482191106	0
0	4444	719.176396802263	1
0	4445	719.34670097782	0
0	4464	727.12898051496	1
0	4466	727.179402027439	2
0	4467	727.190488614784	1
0	4470	727.411707401498	0
0	4479	727.822084811948	1
0	4480	727.96228182262	0
0	4535	741.992264508476	1
0	4536	742.032878670627	0
0	4540	742.118462079836	1
0	4541	742.254097457341	0
0	4555	744.508954054069	1
0	4556	744.569592404815	0
0	4560	744.768892770807	1
0	4561	744.790811191529	0
0	4595	752.815562758403	1
0	4596	752.975250262467	0
0	4600	753.0142437996	1
0	4601	753.196469049181	0
0	4625	758.773276568452	1
0	4626	758.978303092514	0
0	4635	759.398853551168	1
0	4636	759.56820108533	0
0	4640	759.785409867756	1
0	4641	759.789419872044	0
0	4650	760.747244310691	1
0	4651	760.87309423157	0
0	4675	763.727410650059	1
0	4676	763.82344602614	0
0	4682	764.136283411265	1
0	4684	764.183554916404	2
0	4685	764.240770872238	1
0	4687	764.461989658952	0
0	4691	764.531612402606	1
0	4692	764.683208445666	0
0	4696	764.839796111156	1
0	4698	764.865669577559	2
0	4699	764.90442723238	1
0	4702	765.125646019094	0
0	4726	778.35781524821	1
0	4727	778.397499513717	0
0	4771	784.064497816397	1
0	4772	784.134481800645	0
0	4791	789.610574568223	1
0	4792	789.791724794743	0
0	4806	792.154310640263	1
0	4807	792.270166653456	0
0	4867	806.189484611411	1
0	4868	806.278201545346	0
0	4917	814.254635967326	1
0	4919	814.392157645024	2
0	4920	814.463803945332	1
0	4923	814.685022732046	0
0	4957	820.473101567345	1
0	4958	820.649447692444	0
0	4962	820.678592629075	1
0	4963	820.870666479158	0
0	4972	821.70624042094	1
0	4973	821.922511305381	0
0	4977	822.120997552764	1
0	4978	822.143730092095	0
0	5008	826.0538072513	1
0	5009	826.222153660581	0
0	5033	829.523149093346	1
0	5034	829.526164146942	0
0	5038	829.553900863887	1
0	5039	829.747382933656	0
0	5043	829.759837285201	1
0	5044	829.96860172037	0
0	5078	836.261555522143	1
0	5079	836.321359948093	0
0	5103	840.257561152318	1
0	5104	840.329434576488	0
0	5123	843.415839800571	1
0	5124	843.419060775738	0
0	5128	843.426833602326	1
0	5129	843.640279562452	0
0	5164	849.637264123776	1
0	5165	849.856379479364	0
0	5194	854.079183104972	1
0	5195	854.087546220837	0
0	5204	854.527901356774	1
0	5205	854.675049220657	0
0	5229	859.342070609995	1
0	5230	859.547001683728	0
0	5254	864.030093435632	1
0	5255	864.037983106047	0
0	5259	864.130931421602	1
0	5260	864.259201892761	0
0	5269	866.134877676332	1
0	5270	866.217874090847	0
0	5295	870.206610477984	1
0	5297	870.235491402157	2
0	5298	870.236971168201	1
0	5301	870.458189954915	0
0	5310	871.93277081616	1
0	5311	872.09406215818	0
0	5315	872.189076493122	1
0	5316	872.315280944894	0
0	5335	874.345017985132	1
0	5336	874.373345232187	0
0	5340	874.51871825393	1
0	5342	874.591454324732	2
0	5343	874.594564018901	1
0	5346	874.815782805615	0
0	5365	877.635364859676	1
0	5366	877.765939690239	0
0	5370	877.963346637381	1
0	5371	877.987158476953	0
0	5410	882.089687361799	1
0	5411	882.118633231987	0
0	5420	884.901845913391	1
0	5421	884.935217879912	0
0	5446	892.033201283181	1
0	5448	892.071142742076	2
0	5449	892.071695769443	1
0	5452	892.292914556157	0
0	5456	892.391030977963	1
0	5458	892.462032427845	2
0	5459	892.514133342871	1
0	5462	892.735352129585	0
0	5471	893.216967995931	1
0	5472	893.351193120067	0
0	5491	896.482049454272	1
0	5492	896.644416657153	0
0	5516	898.50256343518	1
0	5517	898.709763502978	0
0	5546	901.834609582532	1
0	5547	901.85528783093	0
0	5597	915.708707656283	1
0	5598	915.75540232157	0
0	5627	920.34626241963	1
0	5628	920.38730653664	0
0	5687	931.436166938323	1
0	5688	931.444493932082	0
0	5702	936.067988658241	1
0	5703	936.230243656538	0
0	5717	938.756205380668	1
0	5718	938.942917400495	0
0	5748	944.223888647729	1
0	5750	944.236054720893	2
0	5752	944.24785428193	3
0	5753	944.381074830979	2
0	5757	944.393963554559	3
0	5758	944.602293617693	2
0	5761	944.823512404407	1
0	5764	945.044731191121	0
0	5773	945.712206093556	1
0	5774	945.78138055859	0
0	5818	951.77704502364	1
0	5819	951.89315570578	0
0	5828	952.307431237567	1
0	5829	952.489229009975	0
0	5843	954.910197113666	1
0	5844	955.103726285202	0
0	5890	963.829884568148	1
0	5891	963.913907604666	0
0	5894	964.125384566256	1
0	5895	964.13512639138	0
0	5934	970.17767243643	1
0	5935	970.310305820699	0
0	5949	972.963814836509	1
0	5951	972.984195725538	2
0	5952	973.007131667469	1
0	5955	973.228350454183	0
0	5964	973.918590738433	1
0	5965	974.039004019677	0
0	5989	977.798252375602	1
0	5990	977.939453472619	0
0	5994	977.966456929924	1
0	5996	978.066914055909	2
0	5997	978.160672259333	1
0	6000	978.381891046047	0
0	6009	978.675737932451	1
0	6010	978.896650775738	0
0	6039	985.469362624216	1
0	6043	985.746866665595	2
0	6044	985.809570197165	1
0	6047	985.951086631354	2
0	6048	986.030788983879	1
0	6052	986.09100505445	2
0	6053	986.252007770593	1
0	6056	986.473226557307	0
0	6065	987.319803665645	1
0	6066	987.340006433026	0
0	6085	991.45131824698	1
0	6086	991.614700779837	0
0	6095	992.015984972642	1
0	6097	992.097383582441	2
0	6098	992.105977332714	1
0	6101	992.327196119428	0
0	6110	992.996297238267	1
0	6111	993.132804095237	0
0	6135	997.37681314598	1
0	6136	997.417968926722	0
0	6140	997.419716917842	1
0	6141	997.639187713436	0
1	6	1.202562166102	0.196575601553
1	46	12.274806415144	0.041071146881
1	51	12.496025201858	0.215153029815
1	66	13.371028410981	0.157826029034
1	76	14.534025445141	0.08725320941
1	91	16.238881315759	0.004597142438
1	101	17.210091928092	0.168105886019
1	131	21.388134752476	0.202778003693
1	182	35.092776696295	0.184493460425
1	232	46.870533842874	0.202353417597
1	292	56.622872125174	0.202551194945
1	373	70.497350901257	0.081709862451
1	395	74.20656805177	0.195756483502
1	398	74.427786838484	0.319111329317
1	403	74.649005625198	0.140752498962
1	408	74.870224411912	0.132818321443
1	418	75.316478963315	0.115821053209
1	423	75.537697750029	0.133273425514
1	443	78.790395564457	0.199634787361
1	529	101.059208400799	0.127957199697
1	549	104.0358205975	0.10944493271
1	559	106.847896908578	0.171211014388
1	576	108.725149772346	0.219631099195
1	579	108.94636855906	0.409553742102
1	584	109.167587345774	0.004903162468
1	589	109.388806132488	0.201527845067
1	599	111.980375728307	0.067071736416
1	651	118.684243968832	0.205345066015
1	654	118.905462755546	0.414101807713
1	657	119.12668154226	0.613704538676
1	660	119.347900328974	0.683633159259
1	675	122.406474118478	0.068918039713
1	692	126.668728206285	0.1245456426
1	695	126.889946992999	0.246859260537
1	705	128.810818802874	0.179581006423
1	710	129.032037589588	0.025968288414
1	730	130.997167629112	0.195820964054
1	745	133.652416089664	0.089802457083
1	750	133.873634876378	0.148396590022
1	757	134.290959722476	0.370750394339
1	771	138.95613916038	0.204433940329
1	776	139.177357947094	0.189648315074
1	783	139.398576733808	0.140643711484
1	786	139.619795520522	0.245782754423
1	793	139.841014307236	0.17816184972
1	796	140.06223309395	0.318490281551
1	816	144.526301193472	0.178055088487
1	881	153.517146191334	0.014252294829
1	896	156.57812174753	0.190367714172
1	932	161.365744847805	0.043034060322
1	942	162.55247103718	0.035632100268
1	947	162.773689823894	0.101553757714
1	969	168.504602214359	0.095130506711
1	972	168.725821001073	0.231308277073
1	992	170.790070288282	0.193472030717
1	1004	172.383512498266	0.204669120666
1	1007	172.60473128498	0.258130755988
1	1022	179.567925501344	0.101181542284
1	1027	179.789144288058	0.189418624694
1	1032	180.010363074772	0.201796461434
1	1037	180.231581861486	0.039214102271
1	1047	181.673520188347	0.090410529469
1	1052	181.894738975061	0.02652592901
1	1068	188.180748210494	0.185301064741
1	1083	191.597217574343	0.020656497803
1	1088	191.818436361057	0.00110727497
1	1128	197.492776809331	0.00830247769
1	1133	197.713995596045	0.17576537667
1	1148	200.839243582187	0.064364398442
1	1168	207.323610421516	0.086800920883
1	1173	207.54482920823	0.010159053562
1	1219	215.364623615775	0.20034541039
1	1254	223.23600073588	0.141778388872
1	1274	227.255839346474	0.045753965985
1	1279	227.477058133188	0.061145011469
1	1289	228.592545406291	0.023681146003
1	1294	228.813764193005	0.049073902371
1	1331	233.191334683435	0.060447307621
1	1334	233.412553470149	0.236359846166
1	1339	233.633772256863	0.211868791204
1	1372	237.49020454864	0.162231903098
1	1377	237.711423335354	0.293657382637
1	1380	237.932642122068	0.312910579415
1	1395	242.809209046283	0.217336001735
1	1400	243.030427832997	0.100582978192
1	1410	243.731260802762	0.099287466564
1	1420	244.375112860037	0.120062847986
1	1427	244.596331646751	0.191124065047
1	1430	244.817550433465	0.344739306406
1	1435	245.038769220179	0.186604671797
1	1460	250.615311679251	0.197548584463
1	1485	253.501863751086	0.115331364632
1	1521	259.748442828002	0.074671457259
1	1541	264.55497899887	0.155330657757
1	1556	268.382392834983	0.131401403046
1	1570	268.828645318739	0.203374624322
1	1573	269.049864105453	0.37138446223
1	1576	269.271082892167	0.570429500911
1	1586	270.213136310339	0.198494618339
1	1596	271.46640410279	0.017957542231
1	1616	277.078760411379	0.105300760106
1	1641	281.734386041831	0.1308880157
1	1646	281.955604828545	0.092632003162
1	1656	283.45389989949	0.209207725947
1	1672	284.502800735677	0.203531742669
1	1707	293.719952177888	0.217747736445
1	1732	295.579379626148	0.218504989233
1	1742	296.401969202798	0.204422856331
1	1814	310.085395673631	0.000611339075
1	1850	320.550968168507	0.041513234156
1	1853	320.772186955221	0.243341238424
1	1863	321.289155142119	0.064592644871
1	1873	323.071115368225	0.001006157368
1	1883	323.61796437529	0.001679863363
1	1893	324.816948950639	0.061035887793
1	1905	325.500926310266	0.119580720741
1	1910	325.72214509698	0.28965506332
1	1913	325.943363883694	0.38248584875
1	1965	335.290429456225	0.115099266368
1	2004	344.816392866052	0.031574100376
1	2014	347.700657203948	0.073484740212
1	2049	353.228600229043	0.002383086188
1	2084	362.760533319366	0.181332528479
1	2116	371.320737732306	0.006632007112
1	2142	374.057914299168	0.081110689937
1	2145	374.279133085882	0.279536891637
1	2162	375.204230939763	0.160742480341
1	2169	375.425449726477	0.380853160937
1	2172	375.646668513191	0.281153168054
1	2177	375.867887299905	0.47104208802
1	2180	376.089106086619	0.246117794817
1	2185	376.310324873333	0.101211569054
1	2190	376.531543660047	0.176391587722
1	2200	377.225458151502	0.095301053294
1	2240	387.75609435648	0.068314248874
1	2255	390.353440134853	0.16721835764
1	2281	393.239721217221	0.1631609691
1	2298	395.608373559383	0.19192601156
1	2301	395.829592346097	0.240025738134
1	2306	396.050811132811	0.084661847798
1	2351	401.1950944225	0.214544462545
1	2371	405.098259945948	0.058720373334
1	2376	405.319478732662	0.05137091565
1	2396	410.084558822054	0.181475136656
1	2418	413.773912840363	0.094242635174
1	2452	422.903585589882	0.036716106518
1	2482	431.840141673342	0.086471617345
1	2492	434.225073649652	0.135076647789
1	2512	436.589960798739	0.085480077041
1	2517	436.811179585453	0.004699423005
1	2573	444.46100561771	0.163885587002
1	2588	445.749364575496	0.114491880609
1	2595	445.97058336221	0.162266530388
1	2598	446.191802148924	0.278341749692
1	2613	447.867408377181	0.130652963058
1	2618	448.088627163895	0.168237269093
1	2628	449.096863238604	0.191887020824
1	2688	465.159314268819	0.215989490767
1	2693	465.380533055533	0.065579929756
1	2729	474.602273352976	0.144331824412
1	2739	475.833960572969	0.010998973548
1	2754	479.335803837643	0.065023967646
1	2779	482.896575477411	0.016773672131
1	2794	485.897256842272	0.179263863843
1	2799	486.118475628986	0.068785971743
1	2804	486.3396944157	0.113463776852
1	2824	488.467339704806	0.080867006833
1	2856	495.978574143515	0.122850669364
1	2863	496.199792930229	0.304869592034
1	2866	496.421011716943	0.370838491594
1	2871	496.838336563041	0.727045049082
1	2880	497.50351937675	0.165551925683
1	2887	497.724738163464	0.047388726794
1	2890	497.945956950178	0.265134023897
1	2910	499.538599622322	0.138410139065
1	2925	501.546174973072	0.05744584479
1	2930	501.767393759786	0.215136011184
1	2935	501.9886125465	0.119433125734
1	2945	503.674909522375	0.158145693494
1	2955	505.014351818839	0.201718445686
1	2970	508.401432496821	0.073875739374
1	2992	511.005805202949	0.129561223832
1	2995	511.227023989663	0.343903699063
1	3000	511.448242776377	0.026406757597
1	3022	515.406936526194	0.380711012798
1	3026	515.628155312908	0.157663597517
1	3033	515.849374099622	0.199162169981
1	3036	516.070592886336	0.255042820037
1	3041	516.29181167305	0.133159978827
1	3056	519.611856666028	0.204659952887
1	3066	520.640591150282	0.130088978224
1	3071	520.861809936996	0.194546913195
1	3091	523.014798536101	0.119928108136
1	3131	529.239283459619	0.119181628794
1	3179	537.915953892837	0.217464040372
1	3184	538.137172679551	0.387764607178
1	3187	538.358391466265	0.385827614347
1	3202	541.431452288338	0.100190097288
1	3272	553.304396494366	0.119139242775
1	3277	553.52561528108	0.031239965138
1	3282	553.746834067794	0.138454011693
1	3287	553.968052854508	0.033351723135
1	3297	554.697248279973	0.005193499218
1	3324	558.071066115906	0.018451818395
1	3328	558.29228490262	0.086482685031
1	3343	560.08214835201	0.138155747971
1	3363	563.30796617667	0.127874179733
1	3368	563.529184963384	0.079159771079
1	3378	565.598607103877	0.215730919153
1	3418	571.064855052781	0.142470831997
1	3433	572.982284029149	0.147537478072
1	3443	574.341555227947	0.15014326563
1	3463	579.302811731103	0.170921344769
1	3475	582.597481199871	0.139493064441
1	3479	582.818699986585	0.179026438196
1	3486	583.039918773299	0.004464652646
1	3489	583.261137560013	0.224656935787
1	3519	589.418883902957	0.094143580785
1	3544	595.895925126745	0.199351431515
1	3604	604.426744377012	0.019756209867
1	3614	605.319198477298	0.11875938471
1	3660	615.931704431896	0.203249779404
1	3665	616.15292321861	0.09241924113
1	3685	623.676686235378	0.006700421975
1	3690	623.897905022092	0.067629814463
1	3700	624.534682316432	0.010480095947
1	3730	627.211882860942	0.059050111984
1	3745	628.72916294486	0.118132422035
1	3750	628.950381731574	0.212040558304
1	3811	639.077995632131	0.108236154722
1	3821	639.585499825176	0.096912127959
1	3826	639.80671861189	0.105767324199
1	3876	647.734090516064	0.138803300578
1	3896	650.497815105914	0.012658582415
1	3901	650.719033892628	0.165562571179
1	3906	650.940252679342	0.139944217331
1	3928	656.457534849994	0.379838436836
1	3944	659.221057214723	0.126989305807
1	3947	659.442276001437	0.325453261309
1	3952	659.663494788151	0.167499543777
1	3982	664.618871616895	0.011507174665
1	4007	668.226799002447	0.084876429596
1	4027	670.965092697107	0.065262888018
1	4042	672.985176074451	0.075234660749
1	4054	673.553390290052	0.203153759119
1	4057	673.774609076766	0.253411508707
1	4079	677.13732208554	0.140405498931
1	4148	692.232531973629	0.004917515406
1	4158	692.72293704783	0.167330250116
1	4178	695.336481702547	0.034306903665
1	4183	695.557700489261	0.20330247078
1	4188	695.778919275975	0.038838314211
1	4193	696.000138062689	0.116504217159
1	4198	696.221356849403	0.185853768272
1	4203	696.442575636117	0.050343082755
1	4217	697.535854821405	0.134674127674
1	4220	697.757073608119	0.328558656278
1	4223	697.978292394833	0.470410592278
1	4230	698.395617240931	0.252571336612
1	4234	698.616836027645	0.043936107535
1	4239	698.838054814359	0.179374731737
1	4244	699.059273601073	0.070467510329
1	4286	703.764392018499	0.046444706616
1	4289	703.985610805213	0.265648699552
1	4314	706.063491031131	0.016244821797
1	4329	707.951619931887	0.037154095616
1	4339	711.933134239406	0.038483013847
1	4349	712.653611452949	0.146481926328
1	4356	712.874830239663	0.168736175405
1	4363	713.096049026377	0.272999448473
1	4366	713.317267813091	0.382248858252
1	4371	713.538486599805	0.594704135395
1	4378	713.759705386519	0.223010873755
1	4385	714.177030232617	0.553372886389
1	4387	714.398249019331	0.706546745865
1	4390	714.619467806045	0.799654527432
1	4400	715.122184348799	0.070029923082
1	4405	715.343403135513	0.189300281295
1	4440	719.125482191106	0.180865845723
1	4445	719.34670097782	0.170304175557
1	4467	727.190488614784	0.061508099824
1	4470	727.411707401498	0.232305374059
1	4480	727.96228182262	0.140197010672
1	4536	742.032878670627	0.040614162151
1	4541	742.254097457341	0.135635377505
1	4556	744.569592404815	0.060638350746
1	4561	744.790811191529	0.021918420722
1	4596	752.975250262467	0.159687504064
1	4601	753.196469049181	0.182225249581
1	4626	758.978303092514	0.205026524062
1	4636	759.56820108533	0.169347534162
1	4641	759.789419872044	0.004010004288
1	4651	760.87309423157	0.125849920879
1	4676	763.82344602614	0.096035376081
1	4685	764.240770872238	0.104487460973
1	4687	764.461989658952	0.278434742548
1	4692	764.683208445666	0.15159604306
1	4699	764.90442723238	0.064631121224
1	4702	765.125646019094	0.259976441535
1	4727	778.397499513717	0.039684265507
1	4772	784.134481800645	0.069983984248
1	4792	789.791724794743	0.18115022652
1	4807	792.270166653456	0.115856013193
1	4868	806.278201545346	0.088716933935
1	4920	814.463803945332	0.209167978006
1	4923	814.685022732046	0.292865087022
1	4958	820.649447692444	0.176346125099
1	4963	820.870666479158	0.192073850083
1	4973	821.922511305381	0.216270884441
1	4978	822.143730092095	0.022732539331
1	5009	826.222153660581	0.168346409281
1	5034	829.526164146942	0.003015053596
1	5039	829.747382933656	0.193482069769
1	5044	829.96860172037	0.208764435169
1	5079	836.321359948093	0.05980442595
1	5104	840.329434576488	0.07187342417
1	5124	843.419060775738	0.003220975167
1	5129	843.640279562452	0.213445960126
1	5165	849.856379479364	0.219115355588
1	5195	854.087546220837	0.008363115865
1	5205	854.675049220657	0.147147863883
1	5230	859.547001683728	0.204931073733
1	5255	864.037983106047	0.007889670415
1	5260	864.259201892761	0.128270471159
1	5270	866.217874090847	0.082996414515
1	5298	870.236971168201	0.030360690217
1	5301	870.458189954915	0.222698552758
1	5311	872.09406215818	0.16129134202
1	5316	872.315280944894	0.126204451772
1	5336	874.373345232187	0.028327247055
1	5343	874.594564018901	0.075845764971
1	5346	874.815782805615	0.224328480883
1	5366	877.765939690239	0.130574830563
1	5371	877.987158476953	0.023811839572
1	5411	882.118633231987	0.028945870188
1	5421	884.935217879912	0.033371966521
1	5449	892.071695769443	0.038494486262
1	5452	892.292914556157	0.221771814081
1	5459	892.514133342871	0.123102364908
1	5462	892.735352129585	0.27331970174
1	5472	893.351193120067	0.134225124136
1	5492	896.644416657153	0.162367202881
1	5517	898.709763502978	0.207200067798
1	5547	901.85528783093	0.020678248398
1	5598	915.75540232157	0.046694665287
1	5628	920.38730653664	0.04104411701
1	5688	931.444493932082	0.008326993759
1	5703	936.230243656538	0.162254998297
1	5718	938.942917400495	0.186712019827
1	5753	944.381074830979	0.15718618325
1	5758	944.602293617693	0.3662388968
1	5761	944.823512404407	0.575658122477
1	5764	945.044731191121	0.650767636562
1	5774	945.78138055859	0.069174465034
1	5819	951.89315570578	0.11611068214
1	5829	952.489229009975	0.181797772408
1	5844	955.103726285202	0.193529171536
1	5891	963.913907604666	0.084023036518
1	5895	964.13512639138	0.009741825124
1	5935	970.310305820699	0.132633384269
1	5952	973.007131667469	0.04331683096
1	5955	973.228350454183	0.244154728645
1	5965	974.039004019677	0.120413281244
1	5990	977.939453472619	0.141201097017
1	5997	978.160672259333	0.194215329409
1	6000	978.381891046047	0.314976990138
1	6010	978.896650775738	0.220912843287
1	6044	985.809570197165	0.340207572949
1	6048	986.030788983879	0.283922318284
1	6053	986.252007770593	0.300921139239
1	6056	986.473226557307	0.382221502857
1	6066	987.340006433026	0.020202767381
1	6086	991.614700779837	0.163382532857
1	6098	992.105977332714	0.089992360072
1	6101	992.327196119428	0.229812536987
1	6111	993.132804095237	0.13650685697
1	6136	997.417968926722	0.041155780742
1	6141	997.639187713436	0.219470795594
2	7	1.202562166102	0.221218786714
2	10	1.423780952816	0.417794388267
2	15	2.434930293268	0.221218786714
2	20	3.138172552296	0.221218786714
2	25	4.497064703122	0.221218786714
2	30	6.057712113535	0.221218786714
2	35	6.650745231218	0.221218786714
2	40	10.692010889348	0.221218786714
2	47	12.274806415144	0.221218786714
2	52	12.496025201858	0.262289933595
2	55	12.717243988572	0.436371816529
2	60	13.095085783224	0.221218786714
2	67	13.371028410981	0.221218786714
2	70	13.592247197695	0.379044815748
2	77	14.534025445141	0.221218786714
2	80	14.755244231855	0.308471996124
2	85	15.754841656013	0.221218786714
2	92	16.238881315759	0.221218786714
2	95	16.460100102473	0.225815929152
2	102	17.210091928092	0.221218786714
2	105	17.431310714806	0.389324672733
2	110	19.61711943682	0.221218786714
2	115	19.889875723512	0.221218786714
2	120	20.453732292261	0.221218786714
2	125	20.818492434343	0.221218786714
2	132	21.388134752476	0.221218786714
2	135	21.60935353919	0.423996790407
2	140	22.53204083468	0.221218786714
2	145	25.537949443966	0.221218786714
2	150	26.80885259516	0.221218786714
2	156	28.060266784712	0.221218786714
2	161	28.859265650765	0.221218786714
2	166	29.259860343295	0.221218786714
2	171	30.139853735914	0.221218786714
2	176	34.705903637451	0.221218786714
2	183	35.092776696295	0.221218786714
2	186	35.313995483009	0.405712247139
2	191	36.008330671827	0.221218786714
2	196	36.735758310865	0.221218786714
2	201	38.036784609804	0.221218786714
2	206	40.153645406921	0.221218786714
2	211	43.043746913222	0.221218786714
2	216	44.224548750699	0.221218786714
2	221	46.178094416096	0.221218786714
2	226	46.594609964927	0.221218786714
2	233	46.870533842874	0.221218786714
2	236	47.091752629588	0.423572204311
2	241	47.534712933986	0.221218786714
2	246	48.924392900702	0.221218786714
2	251	49.902839061913	0.221218786714
2	256	50.264657914728	0.221218786714
2	261	51.268194452147	0.221218786714
2	266	51.614211901949	0.221218786714
2	271	53.149674970526	0.221218786714
2	276	54.4931352737	0.221218786714
2	281	55.446265153609	0.221218786714
2	286	56.162908257352	0.221218786714
2	293	56.622872125174	0.221218786714
2	296	56.844090911888	0.423769981659
2	301	57.748695359778	0.221218786714
2	307	58.969764525828	0.221218786714
2	312	60.030037940552	0.221218786714
2	317	60.727199861445	0.221218786714
2	322	61.725812355093	0.221218786714
2	327	63.500225367607	0.221218786714
2	332	64.038821880113	0.221218786714
2	337	64.623531290504	0.221218786714
2	342	64.915464911719	0.221218786714
2	347	65.880858235866	0.221218786714
2	352	66.421832403454	0.221218786714
2	357	66.948728442376	0.221218786714
2	362	68.037960340834	0.221218786714
2	367	69.969544827581	0.221218786714
2	374	70.497350901257	0.221218786714
2	377	70.718569687971	0.302928649165
2	382	72.537885412223	0.221218786714
2	387	73.681685037569	0.221218786714
2	396	74.20656805177	0.221218786714
2	399	74.427786838484	0.416975270216
2	404	74.649005625198	0.540330116031
2	409	74.870224411912	0.361971285676
2	412	75.091443198626	0.354037108157
2	419	75.316478963315	0.221218786714
2	424	75.537697750029	0.337039839923
2	427	75.758916536743	0.354492212228
2	432	76.510679581882	0.221218786714
2	437	76.936091830515	0.221218786714
2	444	78.790395564457	0.221218786714
2	447	79.011614351171	0.420853574075
2	452	81.029905063562	0.221218786714
2	458	81.951307970551	0.221218786714
2	463	82.679728585128	0.221218786714
2	468	84.473832690743	0.221218786714
2	473	86.289053739369	0.221218786714
2	478	87.348735086362	0.221218786714
2	483	89.837063773153	0.221218786714
2	488	90.431279892495	0.221218786714
2	493	91.022898395307	0.221218786714
2	498	93.594722491986	0.221218786714
2	503	94.852186890748	0.221218786714
2	508	95.56075020642	0.221218786714
2	513	96.465363787126	0.221218786714
2	518	99.287315685414	0.221218786714
2	523	100.782362234371	0.221218786714
2	530	101.059208400799	0.221218786714
2	533	101.280427187513	0.349175986411
2	538	103.159465285751	0.221218786714
2	543	103.761421675239	0.221218786714
2	550	104.0358205975	0.221218786714
2	553	104.257039384214	0.330663719424
2	560	106.847896908578	0.221218786714
2	563	107.069115695292	0.392429801102
2	568	108.473550805409	0.221218786714
2	577	108.725149772346	0.221218786714
2	580	108.94636855906	0.440849885909
2	585	109.167587345774	0.630772528816
2	590	109.388806132488	0.226121949182
2	593	109.610024919202	0.422746631781
2	600	111.980375728307	0.221218786714
2	603	112.201594515021	0.28829052313
2	609	112.951895644274	0.221218786714
2	614	113.244433963527	0.221218786714
2	619	113.583159691079	0.221218786714
2	624	114.58654746795	0.221218786714
2	629	116.280248528916	0.221218786714
2	634	117.187566613095	0.221218786714
2	639	117.674933172773	0.221218786714
2	652	118.684243968832	0.221218786714
2	655	118.905462755546	0.426563852729
2	658	119.12668154226	0.635320594427
2	661	119.347900328974	0.83492332539
2	664	119.569119115688	0.904851945973
2	669	119.841858963503	0.221218786714
2	676	122.406474118478	0.221218786714
2	679	122.627692905192	0.290136826427
2	684	125.561412276472	0.221218786714
2	693	126.668728206285	0.221218786714
2	696	126.889946992999	0.345764429314
2	699	127.111165779713	0.468078047251
2	706	128.810818802874	0.221218786714
2	711	129.032037589588	0.400799793137
2	714	129.253256376302	0.247187075128
2	719	129.534722314626	0.221218786714
2	724	130.752545662648	0.221218786714
2	731	130.997167629112	0.221218786714
2	734	131.218386415826	0.417039750768
2	739	131.455094890788	0.221218786714
2	746	133.652416089664	0.221218786714
2	751	133.873634876378	0.311021243797
2	756	134.094853663092	0.369615376736
2	760	134.51217850919	0.591969181053
2	765	135.327775693812	0.221218786714
2	772	138.95613916038	0.221218786714
2	777	139.177357947094	0.425652727043
2	784	139.398576733808	0.410867101788
2	787	139.619795520522	0.361862498198
2	794	139.841014307236	0.467001541137
2	797	140.06223309395	0.399380636434
2	800	140.283451880664	0.539709068265
2	805	141.032302801796	0.221218786714
2	810	141.861219971254	0.221218786714
2	817	144.526301193472	0.221218786714
2	820	144.747519980186	0.399273875201
2	825	145.429934350938	0.221218786714
2	830	147.377960757067	0.221218786714
2	835	147.708235427907	0.221218786714
2	840	149.409966517365	0.221218786714
2	845	150.075426052379	0.221218786714
2	850	150.329745145497	0.221218786714
2	855	150.816474355642	0.221218786714
2	860	151.124734146886	0.221218786714
2	865	151.659681403706	0.221218786714
2	870	152.109919162898	0.221218786714
2	875	152.557758072288	0.221218786714
2	882	153.517146191334	0.221218786714
2	885	153.738364978048	0.235471081543
2	890	154.66019053407	0.221218786714
2	897	156.57812174753	0.221218786714
2	900	156.799340534244	0.411586500886
2	905	157.377812024375	0.221218786714
2	911	157.901469442351	0.221218786714
2	916	158.571299809012	0.221218786714
2	921	160.509806800989	0.221218786714
2	926	161.01858848226	0.221218786714
2	933	161.365744847805	0.221218786714
2	936	161.586963634519	0.264252847036
2	943	162.55247103718	0.221218786714
2	948	162.773689823894	0.256850886982
2	951	162.994908610608	0.322772544428
2	956	163.899436435384	0.221218786714
2	961	167.620136142636	0.221218786714
2	970	168.504602214359	0.221218786714
2	973	168.725821001073	0.316349293425
2	976	168.947039787787	0.452527063787
2	981	169.608096001993	0.221218786714
2	986	170.040855133459	0.221218786714
2	993	170.790070288282	0.221218786714
2	996	171.011289074996	0.414690817431
2	1005	172.383512498266	0.221218786714
2	1008	172.60473128498	0.42588790738
2	1011	172.825950071694	0.479349542702
2	1016	175.111409779563	0.221218786714
2	1023	179.567925501344	0.221218786714
2	1028	179.789144288058	0.322400328998
2	1033	180.010363074772	0.410637411408
2	1038	180.231581861486	0.423015248148
2	1041	180.4528006482	0.260432888985
2	1048	181.673520188347	0.221218786714
2	1053	181.894738975061	0.311629316183
2	1056	182.115957761775	0.247744715724
2	1062	182.898332820741	0.221218786714
2	1069	188.180748210494	0.221218786714
2	1072	188.401966997208	0.406519851455
2	1077	189.816823367517	0.221218786714
2	1084	191.597217574343	0.221218786714
2	1089	191.818436361057	0.241875284517
2	1092	192.039655147771	0.222326061684
2	1097	192.765065730713	0.221218786714
2	1102	193.196908535441	0.221218786714
2	1107	193.673052323408	0.221218786714
2	1112	194.597685421194	0.221218786714
2	1117	196.103147059102	0.221218786714
2	1122	197.229680357647	0.221218786714
2	1129	197.492776809331	0.221218786714
2	1134	197.713995596045	0.229521264404
2	1137	197.935214382759	0.396984163384
2	1142	199.194777608723	0.221218786714
2	1149	200.839243582187	0.221218786714
2	1152	201.060462368901	0.285583185156
2	1157	204.223822771743	0.221218786714
2	1162	204.939049944189	0.221218786714
2	1169	207.323610421516	0.221218786714
2	1174	207.54482920823	0.308019707597
2	1177	207.766047994944	0.231377840276
2	1182	208.816729449527	0.221218786714
2	1187	212.777359324352	0.221218786714
2	1192	213.040765969519	0.221218786714
2	1197	213.900063764129	0.221218786714
2	1202	214.145151696434	0.221218786714
2	1207	214.440081774889	0.221218786714
2	1213	215.053110025852	0.221218786714
2	1220	215.364623615775	0.221218786714
2	1223	215.585842402489	0.421564197104
2	1228	216.175970088473	0.221218786714
2	1233	217.258972170707	0.221218786714
2	1238	217.753934449197	0.221218786714
2	1243	218.434661006367	0.221218786714
2	1248	221.103033031683	0.221218786714
2	1255	223.23600073588	0.221218786714
2	1258	223.457219522594	0.362997175586
2	1263	225.281274469751	0.221218786714
2	1268	226.041408089003	0.221218786714
2	1275	227.255839346474	0.221218786714
2	1280	227.477058133188	0.266972752699
2	1283	227.698276919902	0.282363798183
2	1290	228.592545406291	0.221218786714
2	1295	228.813764193005	0.244899932717
2	1298	229.034982979719	0.270292689085
2	1303	229.781086168033	0.221218786714
2	1308	230.235357196998	0.221218786714
2	1313	230.470385237441	0.221218786714
2	1318	231.936343690871	0.221218786714
2	1323	232.608381777713	0.221218786714
2	1332	233.191334683435	0.221218786714
2	1335	233.412553470149	0.281666094335
2	1340	233.633772256863	0.45757863288
2	1343	233.854991043577	0.433087577918
2	1348	234.340180487613	0.221218786714
2	1353	234.669115570519	0.221218786714
2	1358	236.065198315922	0.221218786714
2	1364	236.585917165938	0.221218786714
2	1373	237.49020454864	0.221218786714
2	1378	237.711423335354	0.383450689812
2	1381	237.932642122068	0.514876169351
2	1384	238.153860908782	0.534129366129
2	1389	239.698112610534	0.221218786714
2	1396	242.809209046283	0.221218786714
2	1401	243.030427832997	0.438554788449
2	1404	243.251646619711	0.321801764906
2	1411	243.731260802762	0.221218786714
2	1414	243.952479589476	0.320506253278
2	1421	244.375112860037	0.221218786714
2	1428	244.596331646751	0.3412816347
2	1431	244.817550433465	0.412342851761
2	1436	245.038769220179	0.56595809312
2	1439	245.259988006893	0.407823458511
2	1444	245.612873394537	0.221218786714
2	1449	249.083812052623	0.221218786714
2	1454	250.2935891089	0.221218786714
2	1461	250.615311679251	0.221218786714
2	1464	250.836530465965	0.418767371177
2	1469	252.064102424703	0.221218786714
2	1474	252.430561967697	0.221218786714
2	1479	253.133889879835	0.221218786714
2	1486	253.501863751086	0.221218786714
2	1489	253.7230825378	0.336550151346
2	1494	254.516652494564	0.221218786714
2	1499	255.661885317087	0.221218786714
2	1504	256.47651238353	0.221218786714
2	1509	257.696265444596	0.221218786714
2	1515	259.339371203883	0.221218786714
2	1522	259.748442828002	0.221218786714
2	1525	259.969661614716	0.295890243973
2	1530	260.192360387827	0.221218786714
2	1535	262.975875461075	0.221218786714
2	1542	264.55497899887	0.221218786714
2	1545	264.776197785584	0.376549444471
2	1550	265.659723573932	0.221218786714
2	1557	268.382392834983	0.221218786714
2	1560	268.603611621697	0.35262018976
2	1571	268.828645318739	0.221218786714
2	1574	269.049864105453	0.424593411036
2	1577	269.271082892167	0.592603248944
2	1580	269.492301678881	0.791648287625
2	1587	270.213136310339	0.221218786714
2	1590	270.434355097053	0.419713405053
2	1597	271.46640410279	0.221218786714
2	1600	271.687622889504	0.239176328945
2	1605	272.586022908101	0.221218786714
2	1610	275.612851399482	0.221218786714
2	1617	277.078760411379	0.221218786714
2	1620	277.299979198093	0.32651954682
2	1625	279.239560321875	0.221218786714
2	1630	280.51590447488	0.221218786714
2	1635	281.501209124584	0.221218786714
2	1642	281.734386041831	0.221218786714
2	1647	281.955604828545	0.352106802414
2	1650	282.176823615259	0.313850789876
2	1657	283.45389989949	0.221218786714
2	1660	283.675118686204	0.430426512661
2	1666	284.165168899127	0.221218786714
2	1673	284.502800735677	0.221218786714
2	1676	284.724019522391	0.424750529383
2	1681	285.759962746138	0.221218786714
2	1686	288.365116797077	0.221218786714
2	1691	289.608334485377	0.221218786714
2	1696	292.477420742175	0.221218786714
2	1701	293.373882815235	0.221218786714
2	1708	293.719952177888	0.221218786714
2	1711	293.941170964602	0.438966523159
2	1716	294.253507123266	0.221218786714
2	1721	294.778288762116	0.221218786714
2	1726	295.310635149428	0.221218786714
2	1733	295.579379626148	0.221218786714
2	1736	295.800598412862	0.439723775947
2	1743	296.401969202798	0.221218786714
2	1746	296.623187989512	0.425641643045
2	1751	298.611550889369	0.221218786714
2	1756	299.468902868673	0.221218786714
2	1761	300.695509916955	0.221218786714
2	1766	301.269322385911	0.221218786714
2	1771	302.828697505485	0.221218786714
2	1776	303.900523523563	0.221218786714
2	1781	304.189915668444	0.221218786714
2	1786	305.087189291491	0.221218786714
2	1791	306.650882049525	0.221218786714
2	1796	306.974348202284	0.221218786714
2	1801	307.357734896792	0.221218786714
2	1806	309.336580450897	0.221218786714
2	1811	309.889289614247	0.221218786714
2	1817	310.306614460345	0.221830125789
2	1822	315.33479424864	0.221218786714
2	1827	316.365023947956	0.221218786714
2	1832	318.769919115517	0.221218786714
2	1837	319.450647428885	0.221218786714
2	1842	319.787147435133	0.221218786714
2	1851	320.550968168507	0.221218786714
2	1854	320.772186955221	0.26273202087
2	1857	320.993405741935	0.464560025138
2	1864	321.289155142119	0.221218786714
2	1867	321.510373928833	0.285811431585
2	1874	323.071115368225	0.221218786714
2	1877	323.292334154939	0.222224944082
2	1884	323.61796437529	0.221218786714
2	1887	323.839183162004	0.222898650077
2	1894	324.816948950639	0.221218786714
2	1897	325.038167737353	0.282254674507
2	1906	325.500926310266	0.221218786714
2	1911	325.72214509698	0.340799507455
2	1914	325.943363883694	0.510873850034
2	1917	326.164582670408	0.603704635464
2	1922	326.903826633692	0.221218786714
2	1927	327.155374267972	0.221218786714
2	1932	328.345095068021	0.221218786714
2	1937	329.320934813011	0.221218786714
2	1942	329.712070705598	0.221218786714
2	1947	330.211744847509	0.221218786714
2	1952	330.728266265519	0.221218786714
2	1957	334.469565305885	0.221218786714
2	1962	335.094323396841	0.221218786714
2	1968	335.511648242939	0.336318053082
2	1973	336.244717582749	0.221218786714
2	1978	337.023429572973	0.221218786714
2	1983	338.308417659766	0.221218786714
2	1988	338.735376324913	0.221218786714
2	1993	341.049538977302	0.221218786714
2	1998	342.073548231457	0.221218786714
2	2005	344.816392866052	0.221218786714
2	2008	345.037611652766	0.25279288709
2	2015	347.700657203948	0.221218786714
2	2018	347.921875990662	0.294703526926
2	2023	349.601031234481	0.221218786714
2	2028	350.120850855032	0.221218786714
2	2033	350.457269920035	0.221218786714
2	2038	350.741176729929	0.221218786714
2	2043	351.265848320477	0.221218786714
2	2050	353.228600229043	0.221218786714
2	2053	353.449819015757	0.223601872902
2	2058	356.841961961284	0.221218786714
2	2063	357.484788529083	0.221218786714
2	2068	359.069465017521	0.221218786714
2	2073	360.070458492988	0.221218786714
2	2078	361.198928925645	0.221218786714
2	2085	362.760533319366	0.221218786714
2	2088	362.98175210608	0.402551315193
2	2093	365.775249506446	0.221218786714
2	2098	367.435712629584	0.221218786714
2	2103	367.706032104854	0.221218786714
2	2108	368.384231465349	0.221218786714
2	2113	371.124631672922	0.221218786714
2	2119	371.54195651902	0.227850793826
2	2124	372.235221370173	0.221218786714
2	2129	372.52140839529	0.221218786714
2	2134	373.050347721661	0.221218786714
2	2143	374.057914299168	0.221218786714
2	2146	374.279133085882	0.302329476651
2	2149	374.500351872596	0.500755678351
2	2154	374.950634523586	0.221218786714
2	2163	375.204230939763	0.221218786714
2	2170	375.425449726477	0.381961267055
2	2173	375.646668513191	0.602071947651
2	2178	375.867887299905	0.502371954768
2	2181	376.089106086619	0.692260874734
2	2186	376.310324873333	0.467336581531
2	2191	376.531543660047	0.322430355768
2	2194	376.752762446761	0.397610374436
2	2201	377.225458151502	0.221218786714
2	2204	377.446676938216	0.316519840008
2	2209	380.656547416621	0.221218786714
2	2214	381.729530162026	0.221218786714
2	2219	383.545088364504	0.221218786714
2	2224	384.252017164271	0.221218786714
2	2229	385.213528670594	0.221218786714
2	2234	385.537993027236	0.221218786714
2	2241	387.75609435648	0.221218786714
2	2244	387.977313143194	0.289533035588
2	2249	389.020671448571	0.221218786714
2	2256	390.353440134853	0.221218786714
2	2259	390.574658921567	0.388437144354
2	2264	391.857087905129	0.221218786714
2	2270	392.427543382035	0.221218786714
2	2275	392.787678982178	0.221218786714
2	2282	393.239721217221	0.221218786714
2	2285	393.460940003935	0.384379755814
2	2290	394.444737385233	0.221218786714
2	2299	395.608373559383	0.221218786714
2	2302	395.829592346097	0.413144798274
2	2307	396.050811132811	0.461244524848
2	2310	396.272029919525	0.305880634512
2	2315	397.180161537777	0.221218786714
2	2320	398.029379174998	0.221218786714
2	2325	398.696865244946	0.221218786714
2	2330	398.971711488083	0.221218786714
2	2335	399.302537070947	0.221218786714
2	2340	399.958042912611	0.221218786714
2	2345	400.339107154971	0.221218786714
2	2352	401.1950944225	0.221218786714
2	2355	401.416313209214	0.435763249259
2	2360	402.661965573566	0.221218786714
2	2365	404.218841119474	0.221218786714
2	2372	405.098259945948	0.221218786714
2	2377	405.319478732662	0.279939160048
2	2380	405.540697519376	0.272589702364
2	2385	407.179984059376	0.221218786714
2	2390	407.952289051016	0.221218786714
2	2397	410.084558822054	0.221218786714
2	2400	410.305777608768	0.40269392337
2	2405	411.23811795813	0.221218786714
2	2410	411.692563392306	0.221218786714
2	2415	413.577806780979	0.221218786714
2	2421	413.995131627077	0.315461421888
2	2426	414.572147232058	0.221218786714
2	2431	417.113010513927	0.221218786714
2	2436	418.115970992414	0.221218786714
2	2441	420.245746422989	0.221218786714
2	2446	422.356879217613	0.221218786714
2	2453	422.903585589882	0.221218786714
2	2456	423.124804376596	0.257934893232
2	2461	424.789112240854	0.221218786714
2	2466	426.485137936898	0.221218786714
2	2471	427.335439119919	0.221218786714
2	2476	427.794912441204	0.221218786714
2	2483	431.840141673342	0.221218786714
2	2486	432.061360460056	0.307690404059
2	2493	434.225073649652	0.221218786714
2	2496	434.446292436366	0.356295434503
2	2501	435.553429761173	0.221218786714
2	2506	436.345551911455	0.221218786714
2	2513	436.589960798739	0.221218786714
2	2518	436.811179585453	0.306698863755
2	2521	437.032398372167	0.225918209719
2	2526	437.336646864257	0.221218786714
2	2531	437.860724536237	0.221218786714
2	2536	438.153318627564	0.221218786714
2	2541	439.980994803549	0.221218786714
2	2546	441.168554895763	0.221218786714
2	2551	441.53321059259	0.221218786714
2	2556	441.887712245992	0.221218786714
2	2561	442.449987925841	0.221218786714
2	2566	443.373366667343	0.221218786714
2	2574	444.46100561771	0.221218786714
2	2577	444.682224404424	0.385104373716
2	2582	445.115318588467	0.221218786714
2	2589	445.749364575496	0.221218786714
2	2596	445.97058336221	0.335710667323
2	2599	446.191802148924	0.383485317102
2	2602	446.413020935638	0.499560536406
2	2607	447.529930903289	0.221218786714
2	2614	447.867408377181	0.221218786714
2	2619	448.088627163895	0.351871749772
2	2622	448.309845950609	0.389456055807
2	2629	449.096863238604	0.221218786714
2	2632	449.318082025318	0.413105807538
2	2637	449.725483948289	0.221218786714
2	2642	453.465852356265	0.221218786714
2	2647	454.151837006941	0.221218786714
2	2652	454.400143466532	0.221218786714
2	2657	457.258780360582	0.221218786714
2	2662	457.726924921048	0.221218786714
2	2667	459.292452310149	0.221218786714
2	2672	459.816155864113	0.221218786714
2	2677	460.26226802621	0.221218786714
2	2682	464.272938288494	0.221218786714
2	2689	465.159314268819	0.221218786714
2	2694	465.380533055533	0.437208277481
2	2697	465.601751842247	0.28679871647
2	2702	466.155282705336	0.221218786714
2	2707	467.512774628005	0.221218786714
2	2712	469.552648417763	0.221218786714
2	2717	472.077022725876	0.221218786714
2	2723	474.199132647006	0.221218786714
2	2730	474.602273352976	0.221218786714
2	2733	474.82349213969	0.365550611126
2	2740	475.833960572969	0.221218786714
2	2743	476.055179359683	0.232217760262
2	2748	476.731338547248	0.221218786714
2	2755	479.335803837643	0.221218786714
2	2758	479.557022624357	0.28624275436
2	2763	480.123355443082	0.221218786714
2	2768	480.896582636253	0.221218786714
2	2773	481.70304221834	0.221218786714
2	2780	482.896575477411	0.221218786714
2	2783	483.117794264125	0.237992458845
2	2788	485.480394341147	0.221218786714
2	2795	485.897256842272	0.221218786714
2	2800	486.118475628986	0.400482650557
2	2805	486.3396944157	0.290004758457
2	2808	486.560913202414	0.334682563566
2	2813	486.789492616006	0.221218786714
2	2818	487.474325186128	0.221218786714
2	2825	488.467339704806	0.221218786714
2	2828	488.68855849152	0.302085793547
2	2833	489.896885492053	0.221218786714
2	2838	493.506170504181	0.221218786714
2	2843	495.161866018469	0.221218786714
2	2848	495.397100316616	0.221218786714
2	2857	495.978574143515	0.221218786714
2	2864	496.199792930229	0.344069456078
2	2867	496.421011716943	0.526088378748
2	2870	496.642230503657	0.592057278308
2	2874	497.059555349755	0.948263835796
2	2881	497.50351937675	0.221218786714
2	2888	497.724738163464	0.386770712397
2	2891	497.945956950178	0.268607513508
2	2894	498.167175736892	0.486352810611
2	2899	498.767330065229	0.221218786714
2	2904	499.284956723342	0.221218786714
2	2911	499.538599622322	0.221218786714
2	2914	499.759818409036	0.359628925779
2	2919	500.586566938652	0.221218786714
2	2926	501.546174973072	0.221218786714
2	2931	501.767393759786	0.278664631504
2	2936	501.9886125465	0.436354797898
2	2939	502.209831333214	0.340651912448
2	2946	503.674909522375	0.221218786714
2	2949	503.896128309089	0.379364480208
2	2956	505.014351818839	0.221218786714
2	2959	505.235570605553	0.4229372324
2	2964	508.064849465833	0.221218786714
2	2971	508.401432496821	0.221218786714
2	2974	508.622651283535	0.295094526088
2	2979	509.279487760537	0.221218786714
2	2984	510.582702655121	0.221218786714
2	2993	511.005805202949	0.221218786714
2	2996	511.227023989663	0.350780010546
2	3001	511.448242776377	0.565122485777
2	3004	511.669461563091	0.247625544311
2	3009	512.227447289935	0.221218786714
2	3014	513.524587082375	0.221218786714
2	3021	515.21083046681	0.221218786714
2	3027	515.628155312908	0.601929799512
2	3034	515.849374099622	0.378882384231
2	3037	516.070592886336	0.420380956695
2	3042	516.29181167305	0.476261606751
2	3045	516.513030459764	0.354378765541
2	3050	517.920621619984	0.221218786714
2	3057	519.611856666028	0.221218786714
2	3060	519.833075452742	0.425878739601
2	3067	520.640591150282	0.221218786714
2	3072	520.861809936996	0.351307764938
2	3075	521.08302872371	0.415765699909
2	3080	521.337187682898	0.221218786714
2	3085	522.494610120485	0.221218786714
2	3092	523.014798536101	0.221218786714
2	3095	523.236017322815	0.34114689485
2	3100	523.576432594272	0.221218786714
2	3105	524.856576703814	0.221218786714
2	3110	525.553947594273	0.221218786714
2	3115	526.71670399439	0.221218786714
2	3120	527.019491499819	0.221218786714
2	3125	527.314240316007	0.221218786714
2	3132	529.239283459619	0.221218786714
2	3135	529.460502246333	0.340400415508
2	3140	532.6843099263	0.221218786714
2	3145	532.981204919002	0.221218786714
2	3150	534.655986008701	0.221218786714
2	3155	535.559240281767	0.221218786714
2	3160	536.498239028223	0.221218786714
2	3165	536.859656688152	0.221218786714
2	3170	537.14651279605	0.221218786714
2	3180	537.915953892837	0.221218786714
2	3185	538.137172679551	0.438682827086
2	3188	538.358391466265	0.608983393892
2	3191	538.579610252979	0.607046401061
2	3196	540.648752009853	0.221218786714
2	3203	541.431452288338	0.221218786714
2	3206	541.652671075052	0.321408884002
2	3211	542.037554142658	0.221218786714
2	3216	542.585572414241	0.221218786714
2	3221	543.05927391189	0.221218786714
2	3226	543.45389930717	0.221218786714
2	3231	546.280774118658	0.221218786714
2	3236	546.532800958257	0.221218786714
2	3241	547.797505448279	0.221218786714
2	3246	549.736846495778	0.221218786714
2	3251	550.035714385547	0.221218786714
2	3256	551.605385653161	0.221218786714
2	3261	551.954388418637	0.221218786714
2	3266	552.679927405141	0.221218786714
2	3273	553.304396494366	0.221218786714
2	3278	553.52561528108	0.340358029489
2	3283	553.746834067794	0.252458751852
2	3288	553.968052854508	0.359672798407
2	3291	554.189271641222	0.254570509849
2	3298	554.697248279973	0.221218786714
2	3301	554.918467066687	0.226412285932
2	3306	555.66257213662	0.221218786714
2	3311	556.44334707413	0.221218786714
2	3316	557.415693356393	0.221218786714
2	3321	557.874960056522	0.221218786714
2	3329	558.29228490262	0.239670605109
2	3332	558.513503689334	0.307701471745
2	3337	559.580059840722	0.221218786714
2	3344	560.08214835201	0.221218786714
2	3347	560.303367138724	0.359374534685
2	3352	560.589246550307	0.221218786714
2	3357	561.110116948912	0.221218786714
2	3364	563.30796617667	0.221218786714
2	3369	563.529184963384	0.349092966447
2	3372	563.750403750098	0.300378557793
2	3379	565.598607103877	0.221218786714
2	3382	565.819825890591	0.436949705867
2	3387	566.550998118034	0.221218786714
2	3392	566.885970880278	0.221218786714
2	3397	567.645002392448	0.221218786714
2	3402	568.790165442982	0.221218786714
2	3407	569.143165026909	0.221218786714
2	3412	570.812450216446	0.221218786714
2	3419	571.064855052781	0.221218786714
2	3422	571.286073839495	0.363689618711
2	3427	571.827137611732	0.221218786714
2	3434	572.982284029149	0.221218786714
2	3437	573.203502815863	0.368756264786
2	3444	574.341555227947	0.221218786714
2	3447	574.562774014661	0.371362052344
2	3452	577.265719869306	0.221218786714
2	3457	578.330167646695	0.221218786714
2	3464	579.302811731103	0.221218786714
2	3467	579.524030517817	0.392140131483
2	3472	582.401375140487	0.221218786714
2	3480	582.818699986585	0.360711851155
2	3487	583.039918773299	0.40024522491
2	3490	583.261137560013	0.22568343936
2	3493	583.482356346727	0.445875722501
2	3498	583.774076983089	0.221218786714
2	3503	584.47672115975	0.221218786714
2	3508	585.090025245005	0.221218786714
2	3513	586.044354799063	0.221218786714
2	3520	589.418883902957	0.221218786714
2	3523	589.640102689671	0.315362367499
2	3528	590.96769363272	0.221218786714
2	3533	592.079832169988	0.221218786714
2	3538	593.962345396329	0.221218786714
2	3545	595.895925126745	0.221218786714
2	3548	596.117143913459	0.420570218229
2	3553	596.363248000553	0.221218786714
2	3558	597.260841400069	0.221218786714
2	3563	598.283190121723	0.221218786714
2	3568	599.197262680862	0.221218786714
2	3573	599.940946865823	0.221218786714
2	3578	601.913859879406	0.221218786714
2	3583	602.253204190097	0.221218786714
2	3588	602.710347675555	0.221218786714
2	3593	603.048226740207	0.221218786714
2	3598	603.854336833748	0.221218786714
2	3605	604.426744377012	0.221218786714
2	3608	604.647963163726	0.240974996581
2	3615	605.319198477298	0.221218786714
2	3618	605.540417264012	0.339978171424
2	3623	606.424389488086	0.221218786714
2	3629	607.507534122601	0.221218786714
2	3634	608.019329437434	0.221218786714
2	3639	608.469529603449	0.221218786714
2	3644	609.261501349583	0.221218786714
2	3649	610.489391689311	0.221218786714
2	3654	611.459281203878	0.221218786714
2	3661	615.931704431896	0.221218786714
2	3666	616.15292321861	0.424468566118
2	3669	616.374142005324	0.313638027844
2	3674	620.735741742533	0.221218786714
2	3679	622.737328239045	0.221218786714
2	3686	623.676686235378	0.221218786714
2	3691	623.897905022092	0.227919208689
2	3694	624.119123808806	0.288848601177
2	3701	624.534682316432	0.221218786714
2	3704	624.755901103146	0.231698882661
2	3709	625.029947452232	0.221218786714
2	3714	625.461232949142	0.221218786714
2	3719	625.758883752564	0.221218786714
2	3724	626.509094893574	0.221218786714
2	3731	627.211882860942	0.221218786714
2	3734	627.433101647656	0.280268898698
2	3739	627.833738435262	0.221218786714
2	3746	628.72916294486	0.221218786714
2	3751	628.950381731574	0.339351208749
2	3754	629.171600518288	0.433259345018
2	3759	629.951094221073	0.221218786714
2	3764	630.373464018449	0.221218786714
2	3769	630.78492830531	0.221218786714
2	3774	632.695967536332	0.221218786714
2	3780	634.258221218616	0.221218786714
2	3785	634.832344466755	0.221218786714
2	3790	635.093917008937	0.221218786714
2	3795	635.414142638241	0.221218786714
2	3800	636.141392451485	0.221218786714
2	3805	638.76550031774	0.221218786714
2	3812	639.077995632131	0.221218786714
2	3815	639.299214418845	0.329454941436
2	3822	639.585499825176	0.221218786714
2	3827	639.80671861189	0.318130914673
2	3830	640.027937398604	0.326986110913
2	3835	643.250576397554	0.221218786714
2	3840	643.691939132077	0.221218786714
2	3845	645.569499531476	0.221218786714
2	3850	645.889039921552	0.221218786714
2	3855	646.14591134213	0.221218786714
2	3860	646.488691487394	0.221218786714
2	3865	646.856241729914	0.221218786714
2	3870	647.207544266207	0.221218786714
2	3877	647.734090516064	0.221218786714
2	3880	647.955309302778	0.360022087292
2	3885	648.989259731482	0.221218786714
2	3890	650.260319169674	0.221218786714
2	3897	650.497815105914	0.221218786714
2	3902	650.719033892628	0.233877369129
2	3907	650.940252679342	0.386781357893
2	3910	651.161471466056	0.361163004045
2	3915	654.937926292347	0.221218786714
2	3920	655.907860191955	0.221218786714
2	3927	656.26142879061	0.221218786714
2	3931	656.678753636708	0.60105722355
2	3936	657.089407264903	0.221218786714
2	3945	659.221057214723	0.221218786714
2	3948	659.442276001437	0.348208092521
2	3953	659.663494788151	0.546672048023
2	3956	659.884713574865	0.388718330491
2	3961	660.275412196292	0.221218786714
2	3966	660.965278707064	0.221218786714
2	3971	661.833988703974	0.221218786714
2	3976	662.740888172186	0.221218786714
2	3983	664.618871616895	0.221218786714
2	3986	664.840090403609	0.232725961379
2	3991	665.305398477882	0.221218786714
2	3996	666.17605380945	0.221218786714
2	4001	667.393070130962	0.221218786714
2	4008	668.226799002447	0.221218786714
2	4011	668.448017789161	0.30609521631
2	4016	669.399396783759	0.221218786714
2	4021	670.083903885807	0.221218786714
2	4028	670.965092697107	0.221218786714
2	4031	671.186311483821	0.286481674732
2	4036	671.906569436541	0.221218786714
2	4043	672.985176074451	0.221218786714
2	4046	673.206394861165	0.296453447463
2	4055	673.553390290052	0.221218786714
2	4058	673.774609076766	0.424372545833
2	4061	673.99582786348	0.474630295421
2	4066	675.201207729315	0.221218786714
2	4071	675.609173702681	0.221218786714
2	4076	676.941216026156	0.221218786714
2	4082	677.358540872254	0.361624285645
2	4087	678.000166168004	0.221218786714
2	4092	678.486453903877	0.221218786714
2	4097	681.468002067879	0.221218786714
2	4102	682.683522449969	0.221218786714
2	4107	685.387475829899	0.221218786714
2	4112	685.846633994982	0.221218786714
2	4117	686.733743900925	0.221218786714
2	4122	687.031659154487	0.221218786714
2	4127	688.15397595044	0.221218786714
2	4132	690.583010655609	0.221218786714
2	4137	691.565977755725	0.221218786714
2	4142	691.967505986883	0.221218786714
2	4149	692.232531973629	0.221218786714
2	4152	692.453750760343	0.22613630212
2	4159	692.72293704783	0.221218786714
2	4162	692.944155834544	0.38854903683
2	4167	693.290839612124	0.221218786714
2	4172	694.476375286796	0.221218786714
2	4179	695.336481702547	0.221218786714
2	4184	695.557700489261	0.255525690379
2	4189	695.778919275975	0.424521257494
2	4194	696.000138062689	0.260057100925
2	4199	696.221356849403	0.337723003873
2	4204	696.442575636117	0.407072554986
2	4207	696.663794422831	0.271561869469
2	4218	697.535854821405	0.221218786714
2	4221	697.757073608119	0.355892914388
2	4224	697.978292394833	0.549777442992
2	4229	698.199511181547	0.691629378992
2	4235	698.616836027645	0.473790123326
2	4240	698.838054814359	0.265154894249
2	4245	699.059273601073	0.400593518451
2	4248	699.280492387787	0.291686297043
2	4253	699.588716070398	0.221218786714
2	4258	699.865330093992	0.221218786714
2	4263	701.270953480197	0.221218786714
2	4268	701.80363878712	0.221218786714
2	4273	702.145396591335	0.221218786714
2	4278	703.441606151134	0.221218786714
2	4287	703.764392018499	0.221218786714
2	4290	703.985610805213	0.26766349333
2	4293	704.206829591927	0.486867486266
2	4298	704.843231325407	0.221218786714
2	4303	705.068573374056	0.221218786714
2	4308	705.71879177286	0.221218786714
2	4315	706.063491031131	0.221218786714
2	4318	706.284709817845	0.237463608511
2	4323	707.257782941456	0.221218786714
2	4330	707.951619931887	0.221218786714
2	4333	708.172838718601	0.25837288233
2	4340	711.933134239406	0.221218786714
2	4343	712.15435302612	0.259701800561
2	4350	712.653611452949	0.221218786714
2	4357	712.874830239663	0.367700713042
2	4364	713.096049026377	0.389954962119
2	4367	713.317267813091	0.494218235187
2	4372	713.538486599805	0.603467644966
2	4379	713.759705386519	0.815922922109
2	4384	713.980924173233	0.444229660469
2	4388	714.398249019331	0.774591673103
2	4391	714.619467806045	0.927765532579
2	4394	714.840686592759	1.020873314146
2	4401	715.122184348799	0.221218786714
2	4406	715.343403135513	0.291248709796
2	4409	715.564621922227	0.410519068009
2	4414	716.169004080485	0.221218786714
2	4419	716.910117823136	0.221218786714
2	4424	717.420701446905	0.221218786714
2	4429	717.85317952975	0.221218786714
2	4434	718.190124122441	0.221218786714
2	4441	719.125482191106	0.221218786714
2	4446	719.34670097782	0.402084632437
2	4449	719.567919764534	0.391522962271
2	4454	721.084702043331	0.221218786714
2	4459	724.465538411608	0.221218786714
2	4468	727.190488614784	0.221218786714
2	4471	727.411707401498	0.282726886538
2	4474	727.632926188212	0.453524160773
2	4481	727.96228182262	0.221218786714
2	4484	728.183500609334	0.361415797386
2	4489	731.173035450735	0.221218786714
2	4494	731.544892143263	0.221218786714
2	4499	732.579479277174	0.221218786714
2	4504	733.435480611144	0.221218786714
2	4509	735.502515906025	0.221218786714
2	4514	740.047518790289	0.221218786714
2	4519	740.76865133797	0.221218786714
2	4524	741.157931818185	0.221218786714
2	4529	741.393396073966	0.221218786714
2	4537	742.032878670627	0.221218786714
2	4542	742.254097457341	0.261832948865
2	4545	742.475316244055	0.356854164219
2	4550	743.259463684601	0.221218786714
2	4557	744.569592404815	0.221218786714
2	4562	744.790811191529	0.28185713746
2	4565	745.012029978243	0.243137207436
2	4570	745.556945084162	0.221218786714
2	4575	747.241175271444	0.221218786714
2	4580	748.195473245285	0.221218786714
2	4585	751.653455624302	0.221218786714
2	4590	752.753842754207	0.221218786714
2	4597	752.975250262467	0.221218786714
2	4602	753.196469049181	0.380906290778
2	4605	753.417687835895	0.403444036295
2	4610	754.984022357786	0.221218786714
2	4615	755.928386615506	0.221218786714
2	4620	756.677929452718	0.221218786714
2	4627	758.978303092514	0.221218786714
2	4630	759.199521879228	0.426245310776
2	4637	759.56820108533	0.221218786714
2	4642	759.789419872044	0.390566320876
2	4645	760.010638658758	0.225228791002
2	4652	760.87309423157	0.221218786714
2	4655	761.094313018284	0.347068707593
2	4660	761.658027433756	0.221218786714
2	4665	763.256269249037	0.221218786714
2	4670	763.523695044836	0.221218786714
2	4677	763.82344602614	0.221218786714
2	4680	764.044664812854	0.317254162795
2	4688	764.461989658952	0.325706247687
2	4693	764.683208445666	0.499653529262
2	4700	764.90442723238	0.372814829774
2	4703	765.125646019094	0.285849907938
2	4706	765.346864805808	0.481195228249
2	4711	771.99486691107	0.221218786714
2	4716	772.53916296471	0.221218786714
2	4721	776.700619775363	0.221218786714
2	4728	778.397499513717	0.221218786714
2	4731	778.618718300431	0.260903052221
2	4736	779.627823484783	0.221218786714
2	4741	779.94406216467	0.221218786714
2	4746	780.647292211075	0.221218786714
2	4751	781.6207198934	0.221218786714
2	4756	782.665930405119	0.221218786714
2	4761	782.923570700012	0.221218786714
2	4766	783.40071901557	0.221218786714
2	4773	784.134481800645	0.221218786714
2	4776	784.355700587359	0.291202770962
2	4781	785.314637763494	0.221218786714
2	4786	789.349192736098	0.221218786714
2	4793	789.791724794743	0.221218786714
2	4796	790.012943581457	0.402369013234
2	4801	791.213910684385	0.221218786714
2	4808	792.270166653456	0.221218786714
2	4811	792.49138544017	0.337074799907
2	4816	793.369851731432	0.221218786714
2	4821	793.792171746973	0.221218786714
2	4826	794.696576139157	0.221218786714
2	4831	795.104378590292	0.221218786714
2	4837	800.557071627596	0.221218786714
2	4842	801.035885397919	0.221218786714
2	4847	801.99421159692	0.221218786714
2	4852	802.5477519264	0.221218786714
2	4857	804.085949204676	0.221218786714
2	4862	804.375521728495	0.221218786714
2	4869	806.278201545346	0.221218786714
2	4872	806.49942033206	0.309935720649
2	4877	808.491403987652	0.221218786714
2	4882	809.50145763272	0.221218786714
2	4887	809.934943284374	0.221218786714
2	4892	810.361357066602	0.221218786714
2	4897	810.875277730546	0.221218786714
2	4902	811.505397371537	0.221218786714
2	4907	812.023612459345	0.221218786714
2	4912	813.400055061322	0.221218786714
2	4921	814.463803945332	0.221218786714
2	4924	814.685022732046	0.43038676472
2	4927	814.90624151876	0.514083873736
2	4932	816.81024833667	0.221218786714
2	4937	817.841812911218	0.221218786714
2	4942	818.152444524333	0.221218786714
2	4947	819.093459195736	0.221218786714
2	4952	820.123657861724	0.221218786714
2	4959	820.649447692444	0.221218786714
2	4964	820.870666479158	0.397564911813
2	4967	821.091885265872	0.413292636797
2	4974	821.922511305381	0.221218786714
2	4979	822.143730092095	0.437489671155
2	4982	822.364948878809	0.243951326045
2	4988	823.69570848008	0.221218786714
2	4993	824.561288316362	0.221218786714
2	4998	825.522515564166	0.221218786714
2	5003	825.902822709549	0.221218786714
2	5010	826.222153660581	0.221218786714
2	5013	826.443372447295	0.389565195995
2	5018	828.192487802209	0.221218786714
2	5023	828.601409786694	0.221218786714
2	5028	828.880018130648	0.221218786714
2	5035	829.526164146942	0.221218786714
2	5040	829.747382933656	0.22423384031
2	5045	829.96860172037	0.414700856483
2	5048	830.189820507084	0.429983221883
2	5053	831.12589846849	0.221218786714
2	5058	832.287998053293	0.221218786714
2	5063	832.654847306155	0.221218786714
2	5068	832.994273792978	0.221218786714
2	5073	834.841422863239	0.221218786714
2	5080	836.321359948093	0.221218786714
2	5083	836.542578734807	0.281023212664
2	5088	837.907656762267	0.221218786714
2	5093	839.282907998641	0.221218786714
2	5098	839.689628898916	0.221218786714
2	5105	840.329434576488	0.221218786714
2	5108	840.550653363202	0.293092210884
2	5113	841.263306825746	0.221218786714
2	5118	842.830971021608	0.221218786714
2	5125	843.419060775738	0.221218786714
2	5130	843.640279562452	0.224439761881
2	5133	843.861498349166	0.43466474684
2	5139	846.428693783602	0.221218786714
2	5144	847.009419124055	0.221218786714
2	5149	848.173760562144	0.221218786714
2	5154	848.607669151872	0.221218786714
2	5159	849.068662483697	0.221218786714
2	5166	849.856379479364	0.221218786714
2	5169	850.077598266078	0.440334142302
2	5174	851.111647698221	0.221218786714
2	5179	851.375441101089	0.221218786714
2	5184	852.299160567309	0.221218786714
2	5189	853.066887020851	0.221218786714
2	5196	854.087546220837	0.221218786714
2	5199	854.308765007551	0.229581902579
2	5206	854.675049220657	0.221218786714
2	5209	854.896268007371	0.368366650597
2	5214	856.654729647354	0.221218786714
2	5219	856.956055501972	0.221218786714
2	5224	858.545440103251	0.221218786714
2	5231	859.547001683728	0.221218786714
2	5234	859.768220470442	0.426149860447
2	5239	861.153266053182	0.221218786714
2	5244	862.293257674935	0.221218786714
2	5249	862.914415778054	0.221218786714
2	5256	864.037983106047	0.221218786714
2	5261	864.259201892761	0.229108457129
2	5264	864.480420679475	0.349489257873
2	5271	866.217874090847	0.221218786714
2	5274	866.439092877561	0.304215201229
2	5279	867.074174166743	0.221218786714
2	5284	868.005567258087	0.221218786714
2	5290	868.613176275735	0.221218786714
2	5299	870.236971168201	0.221218786714
2	5302	870.458189954915	0.251579476931
2	5305	870.679408741629	0.443917339472
2	5312	872.09406215818	0.221218786714
2	5317	872.315280944894	0.382510128734
2	5320	872.536499731608	0.347423238486
2	5325	873.362907551623	0.221218786714
2	5330	873.883096948458	0.221218786714
2	5337	874.373345232187	0.221218786714
2	5344	874.594564018901	0.249546033769
2	5347	874.815782805615	0.297064551685
2	5350	875.037001592329	0.445547267597
2	5355	876.083379157318	0.221218786714
2	5360	877.097646958797	0.221218786714
2	5367	877.765939690239	0.221218786714
2	5372	877.987158476953	0.351793617277
2	5375	878.208377263667	0.245030626286
2	5380	879.167929645776	0.221218786714
2	5385	879.527305496099	0.221218786714
2	5390	880.297121849444	0.221218786714
2	5395	880.714762243835	0.221218786714
2	5400	880.979200470317	0.221218786714
2	5405	881.391210409982	0.221218786714
2	5412	882.118633231987	0.221218786714
2	5415	882.339852018701	0.250164656902
2	5422	884.935217879912	0.221218786714
2	5425	885.156436666626	0.254590753235
2	5430	890.560736309908	0.221218786714
2	5435	890.80255259052	0.221218786714
2	5441	891.276754664427	0.221218786714
2	5450	892.071695769443	0.221218786714
2	5453	892.292914556157	0.259713272976
2	5460	892.514133342871	0.442990600795
2	5463	892.735352129585	0.344321151622
2	5466	892.956570916299	0.494538488454
2	5473	893.351193120067	0.221218786714
2	5476	893.572411906781	0.35544391085
2	5481	894.783020582724	0.221218786714
2	5486	895.818421848071	0.221218786714
2	5493	896.644416657153	0.221218786714
2	5496	896.865635443867	0.383585989595
2	5501	897.126331161269	0.221218786714
2	5506	897.629614506602	0.221218786714
2	5511	898.096552380903	0.221218786714
2	5518	898.709763502978	0.221218786714
2	5521	898.930982289692	0.428418854512
2	5526	899.905385457897	0.221218786714
2	5531	900.411690201535	0.221218786714
2	5536	901.06673243694	0.221218786714
2	5541	901.534025654385	0.221218786714
2	5548	901.85528783093	0.221218786714
2	5551	902.076506617644	0.241897035112
2	5556	902.871004539066	0.221218786714
2	5561	905.071917222377	0.221218786714
2	5566	905.587951618123	0.221218786714
2	5571	908.482429545821	0.221218786714
2	5576	909.598115279618	0.221218786714
2	5581	910.379798301896	0.221218786714
2	5586	913.392295069097	0.221218786714
2	5592	914.052615694966	0.221218786714
2	5599	915.75540232157	0.221218786714
2	5602	915.976621108284	0.267913452001
2	5607	916.619919184284	0.221218786714
2	5612	918.096410933331	0.221218786714
2	5617	918.656819436549	0.221218786714
2	5622	920.011577487462	0.221218786714
2	5629	920.38730653664	0.221218786714
2	5632	920.608525323354	0.262262903724
2	5637	921.67398767539	0.221218786714
2	5642	922.815927147348	0.221218786714
2	5647	923.109478845037	0.221218786714
2	5652	924.823261504348	0.221218786714
2	5657	925.778896470558	0.221218786714
2	5662	926.750016556169	0.221218786714
2	5667	927.558505681205	0.221218786714
2	5672	928.610839342465	0.221218786714
2	5677	929.181523834348	0.221218786714
2	5682	930.309105629829	0.221218786714
2	5689	931.444493932082	0.221218786714
2	5692	931.665712718796	0.229545780473
2	5697	933.251284072889	0.221218786714
2	5704	936.230243656538	0.221218786714
2	5707	936.451462443252	0.383473785011
2	5712	937.002901400707	0.221218786714
2	5719	938.942917400495	0.221218786714
2	5722	939.164136187209	0.407930806541
2	5727	939.611169264163	0.221218786714
2	5732	940.079278988365	0.221218786714
2	5737	940.968930669379	0.221218786714
2	5743	941.964452637358	0.221218786714
[...]
8	2275	392.787678982178	0
8	2282	393.239721217221	0
8	2285	393.460940003935	0
8	2290	394.444737385233	0
8	2299	395.608373559383	0
8	2302	395.829592346097	0
8	2307	396.050811132811	0
8	2310	396.272029919525	0
8	2315	397.180161537777	0
8	2320	398.029379174998	0
8	2325	398.696865244946	0
8	2330	398.971711488083	0
8	2335	399.302537070947	0
8	2340	399.958042912611	0
8	2345	400.339107154971	0
8	2352	401.1950944225	0
8	2355	401.416313209214	0
8	2360	402.661965573566	0
8	2365	404.218841119474	0
8	2372	405.098259945948	0
8	2377	405.319478732662	0
8	2380	405.540697519376	0
8	2385	407.179984059376	0
8	2390	407.952289051016	0
8	2397	410.084558822054	0
8	2400	410.305777608768	0
8	2405	411.23811795813	0
8	2410	411.692563392306	0
8	2415	413.577806780979	0
8	2421	413.995131627077	0
8	2426	414.572147232058	0
8	2431	417.113010513927	0
8	2436	418.115970992414	0
8	2441	420.245746422989	0
8	2446	422.356879217613	0
8	2453	422.903585589882	0
8	2456	423.124804376596	0
8	2461	424.789112240854	0
8	2466	426.485137936898	0
8	2471	427.335439119919	0
8	2476	427.794912441204	0
8	2483	431.840141673342	0
8	2486	432.061360460056	0
8	2493	434.225073649652	0
8	2496	434.446292436366	0
8	2501	435.553429761173	0
8	2506	436.345551911455	0
8	2513	436.589960798739	0
8	2518	436.811179585453	0
8	2521	437.032398372167	0
8	2526	437.336646864257	0
8	2531	437.860724536237	0
8	2536	438.153318627564	0
8	2541	439.980994803549	0
8	2546	441.168554895763	0
8	2551	441.53321059259	0
8	2556	441.887712245992	0
8	2561	442.449987925841	0
8	2566	443.373366667343	0
8	2574	444.46100561771	0
8	2577	444.682224404424	0
8	2582	445.115318588467	0
8	2589	445.749364575496	0
8	2596	445.97058336221	0
8	2599	446.191802148924	0
8	2602	446.413020935638	0
8	2607	447.529930903289	0
8	2614	447.867408377181	0
8	2619	448.088627163895	0
8	2622	448.309845950609	0
8	2629	449.096863238604	0
8	2632	449.318082025318	0
8	2637	449.725483948289	0
8	2642	453.465852356265	0
8	2647	454.151837006941	0
8	2652	454.400143466532	0
8	2657	457.258780360582	0
8	2662	457.726924921048	0
8	2667	459.292452310149	0
8	2672	459.816155864113	0
8	2677	460.26226802621	0
8	2682	464.272938288494	0
8	2689	465.159314268819	0
8	2694	465.380533055533	0
8	2697	465.601751842247	0
8	2702	466.155282705336	0
8	2707	467.512774628005	0
8	2712	469.552648417763	0
8	2717	472.077022725876	0
8	2723	474.199132647006	0
8	2730	474.602273352976	0
8	2733	474.82349213969	0
8	2740	475.833960572969	0
8	2743	476.055179359683	0
8	2748	476.731338547248	0
8	2755	479.335803837643	0
8	2758	479.557022624357	0
8	2763	480.123355443082	0
8	2768	480.896582636253	0
8	2773	481.70304221834	0
8	2780	482.896575477411	0
8	2783	483.117794264125	0
8	2788	485.480394341147	0
8	2795	485.897256842272	0
8	2800	486.118475628986	0
8	2805	486.3396944157	0
8	2808	486.560913202414	0
8	2813	486.789492616006	0
8	2818	487.474325186128	0
8	2825	488.467339704806	0
8	2828	488.68855849152	0
8	2833	489.896885492053	0
8	2838	493.506170504181	0
8	2843	495.161866018469	0
8	2848	495.397100316616	0
8	2857	495.978574143515	0
8	2864	496.199792930229	0
8	2867	496.421011716943	0
8	2870	496.642230503657	0
8	2874	497.059555349755	0
8	2881	497.50351937675	0
8	2888	497.724738163464	0
8	2891	497.945956950178	0
8	2894	498.167175736892	0
8	2899	498.767330065229	0
8	2904	499.284956723342	0
8	2911	499.538599622322	0
8	2914	499.759818409036	0
8	2919	500.586566938652	0
8	2926	501.546174973072	0
8	2931	501.767393759786	0
8	2936	501.9886125465	0
8	2939	502.209831333214	0
8	2946	503.674909522375	0
8	2949	503.896128309089	0
8	2956	505.014351818839	0
8	2959	505.235570605553	0
8	2964	508.064849465833	0
8	2971	508.401432496821	0
8	2974	508.622651283535	0
8	2979	509.279487760537	0
8	2984	510.582702655121	0
8	2993	511.005805202949	0
8	2996	511.227023989663	0
8	3001	511.448242776377	0
8	3004	511.669461563091	0
8	3009	512.227447289935	0
8	3014	513.524587082375	0
8	3021	515.21083046681	0
8	3027	515.628155312908	0
8	3034	515.849374099622	0
8	3037	516.070592886336	0
8	3042	516.29181167305	0
8	3045	516.513030459764	0
8	3050	517.920621619984	0
8	3057	519.611856666028	0
8	3060	519.833075452742	0
8	3067	520.640591150282	0
8	3072	520.861809936996	0
8	3075	521.08302872371	0
8	3080	521.337187682898	0
8	3085	522.494610120485	0
8	3092	523.014798536101	0
8	3095	523.236017322815	0
8	3100	523.576432594272	0
8	3105	524.856576703814	0
8	3110	525.553947594273	0
8	3115	526.71670399439	0
8	3120	527.019491499819	0
8	3125	527.314240316007	0
8	3132	529.239283459619	0
8	3135	529.460502246333	0
8	3140	532.6843099263	0
8	3145	532.981204919002	0
8	3150	534.655986008701	0
8	3155	535.559240281767	0
8	3160	536.498239028223	0
8	3165	536.859656688152	0
8	3170	537.14651279605	0
8	3180	537.915953892837	0
8	3185	538.137172679551	0
8	3188	538.358391466265	0
8	3191	538.579610252979	0
8	3196	540.648752009853	0
8	3203	541.431452288338	0
8	3206	541.652671075052	0
8	3211	542.037554142658	0
8	3216	542.585572414241	0
8	3221	543.05927391189	0
8	3226	543.45389930717	0
8	3231	546.280774118658	0
8	3236	546.532800958257	0
8	3241	547.797505448279	0
8	3246	549.736846495778	0
8	3251	550.035714385547	0
8	3256	551.605385653161	0
8	3261	551.954388418637	0
8	3266	552.679927405141	0
8	3273	553.304396494366	0
8	3278	553.52561528108	0
8	3283	553.746834067794	0
8	3288	553.968052854508	0
8	3291	554.189271641222	0
8	3298	554.697248279973	0
8	3301	554.918467066687	0
8	3306	555.66257213662	0
8	3311	556.44334707413	0
8	3316	557.415693356393	0
8	3321	557.874960056522	0
8	3329	558.29228490262	0
8	3332	558.513503689334	0
8	3337	559.580059840722	0
8	3344	560.08214835201	0
8	3347	560.303367138724	0
8	3352	560.589246550307	0
8	3357	561.110116948912	0
8	3364	563.30796617667	0
8	3369	563.529184963384	0
8	3372	563.750403750098	0
8	3379	565.598607103877	0
8	3382	565.819825890591	0
8	3387	566.550998118034	0
8	3392	566.885970880278	0
8	3397	567.645002392448	0
8	3402	568.790165442982	0
8	3407	569.143165026909	0
8	3412	570.812450216446	0
8	3419	571.064855052781	0
8	3422	571.286073839495	0
8	3427	571.827137611732	0
8	3434	572.982284029149	0
8	3437	573.203502815863	0
8	3444	574.341555227947	0
8	3447	574.562774014661	0
8	3452	577.265719869306	0
8	3457	578.330167646695	0
8	3464	579.302811731103	0
8	3467	579.524030517817	0
8	3472	582.401375140487	0
8	3480	582.818699986585	0
8	3487	583.039918773299	0
8	3490	583.261137560013	0
8	3493	583.482356346727	0
8	3498	583.774076983089	0
8	3503	584.47672115975	0
8	3508	585.090025245005	0
8	3513	586.044354799063	0
8	3520	589.418883902957	0
8	3523	589.640102689671	0
8	3528	590.96769363272	0
8	3533	592.079832169988	0
8	3538	593.962345396329	0
8	3545	595.895925126745	0
8	3548	596.117143913459	0
8	3553	596.363248000553	0
8	3558	597.260841400069	0
8	3563	598.283190121723	0
8	3568	599.197262680862	0
8	3573	599.940946865823	0
8	3578	601.913859879406	0
8	3583	602.253204190097	0
8	3588	602.710347675555	0
8	3593	603.048226740207	0
8	3598	603.854336833748	0
8	3605	604.426744377012	0
8	3608	604.647963163726	0
8	3615	605.319198477298	0
8	3618	605.540417264012	0
8	3623	606.424389488086	0
8	3629	607.507534122601	0
8	3634	608.019329437434	0
8	3639	608.469529603449	0
8	3644	609.261501349583	0
8	3649	610.489391689311	0
8	3654	611.459281203878	0
8	3661	615.931704431896	0
8	3666	616.15292321861	0
8	3669	616.374142005324	0
8	3674	620.735741742533	0
8	3679	622.737328239045	0
8	3686	623.676686235378	0
8	3691	623.897905022092	0
8	3694	624.119123808806	0
8	3701	624.534682316432	0
8	3704	624.755901103146	0
8	3709	625.029947452232	0
8	3714	625.461232949142	0
8	3719	625.758883752564	0
8	3724	626.509094893574	0
8	3731	627.211882860942	0
8	3734	627.433101647656	0
8	3739	627.833738435262	0
8	3746	628.72916294486	0
8	3751	628.950381731574	0
8	3754	629.171600518288	0
8	3759	629.951094221073	0
8	3764	630.373464018449	0
8	3769	630.78492830531	0
8	3774	632.695967536332	0
8	3780	634.258221218616	0
8	3785	634.832344466755	0
8	3790	635.093917008937	0
8	3795	635.414142638241	0
8	3800	636.141392451485	0
8	3805	638.76550031774	0
8	3812	639.077995632131	0
8	3815	639.299214418845	0
8	3822	639.585499825176	0
8	3827	639.80671861189	0
8	3830	640.027937398604	0
8	3835	643.250576397554	0
8	3840	643.691939132077	0
8	3845	645.569499531476	0
8	3850	645.889039921552	0
8	3855	646.14591134213	0
8	3860	646.488691487394	0
8	3865	646.856241729914	0
8	3870	647.207544266207	0
8	3877	647.734090516064	0
8	3880	647.955309302778	0
8	3885	648.989259731482	0
8	3890	650.260319169674	0
8	3897	650.497815105914	0
8	3902	650.719033892628	0
8	3907	650.940252679342	0
8	3910	651.161471466056	0
8	3915	654.937926292347	0
8	3920	655.907860191955	0
8	3927	656.26142879061	0
8	3931	656.678753636708	0
8	3936	657.089407264903	0
8	3945	659.221057214723	0
8	3948	659.442276001437	0
8	3953	659.663494788151	0
8	3956	659.884713574865	0
8	3961	660.275412196292	0
8	3966	660.965278707064	0
8	3971	661.833988703974	0
8	3976	662.740888172186	0
8	3983	664.618871616895	0
8	3986	664.840090403609	0
8	3991	665.305398477882	0
8	3996	666.17605380945	0
8	4001	667.393070130962	0
8	4008	668.226799002447	0
8	4011	668.448017789161	0
8	4016	669.399396783759	0
8	4021	670.083903885807	0
8	4028	670.965092697107	0
8	4031	671.186311483821	0
8	4036	671.906569436541	0
8	4043	672.985176074451	0
8	4046	673.206394861165	0
8	4055	673.553390290052	0
8	4058	673.774609076766	0
8	4061	673.99582786348	0
8	4066	675.201207729315	0
8	4071	675.609173702681	0
8	4076	676.941216026156	0
8	4082	677.358540872254	0
8	4087	678.000166168004	0
8	4092	678.486453903877	0
8	4097	681.468002067879	0
8	4102	682.683522449969	0
8	4107	685.387475829899	0
8	4112	685.846633994982	0
8	4117	686.733743900925	0
8	4122	687.031659154487	0
8	4127	688.15397595044	0
8	4132	690.583010655609	0
8	4137	691.565977755725	0
8	4142	691.967505986883	0
8	4149	692.232531973629	0
8	4152	692.453750760343	0
8	4159	692.72293704783	0
8	4162	692.944155834544	0
8	4167	693.290839612124	0
8	4172	694.476375286796	0
8	4179	695.336481702547	0
8	4184	695.557700489261	0
8	4189	695.778919275975	0
8	4194	696.000138062689	0
8	4199	696.221356849403	0
8	4204	696.442575636117	0
8	4207	696.663794422831	0
8	4218	697.535854821405	0
8	4221	697.757073608119	0
8	4224	697.978292394833	0
8	4229	698.199511181547	0
8	4235	698.616836027645	0
8	4240	698.838054814359	0
8	4245	699.059273601073	0
8	4248	699.280492387787	0
8	4253	699.588716070398	0
8	4258	699.865330093992	0
8	4263	701.270953480197	0
8	4268	701.80363878712	0
8	4273	702.145396591335	0
8	4278	703.441606151134	0
8	4287	703.764392018499	0
8	4290	703.985610805213	0
8	4293	704.206829591927	0
8	4298	704.843231325407	0
8	4303	705.068573374056	0
8	4308	705.71879177286	0
8	4315	706.063491031131	0
8	4318	706.284709817845	0
8	4323	707.257782941456	0
8	4330	707.951619931887	0
8	4333	708.172838718601	0
8	4340	711.933134239406	0
8	4343	712.15435302612	0
8	4350	712.653611452949	0
8	4357	712.874830239663	0
8	4364	713.096049026377	0
8	4367	713.317267813091	0
8	4372	713.538486599805	0
8	4379	713.759705386519	0
8	4384	713.980924173233	0
8	4388	714.398249019331	0
8	4391	714.619467806045	0
8	4394	714.840686592759	0
8	4401	715.122184348799	0
8	4406	715.343403135513	0
8	4409	715.564621922227	0
8	4414	716.169004080485	0
8	4419	716.910117823136	0
8	4424	717.420701446905	0
8	4429	717.85317952975	0
8	4434	718.190124122441	0
8	4441	719.125482191106	0
8	4446	719.34670097782	0
8	4449	719.567919764534	0
8	4454	721.084702043331	0
8	4459	724.465538411608	0
8	4468	727.190488614784	0
8	4471	727.411707401498	0
8	4474	727.632926188212	0
8	4481	727.96228182262	0
8	4484	728.183500609334	0
8	4489	731.173035450735	0
8	4494	731.544892143263	0
8	4499	732.579479277174	0
8	4504	733.435480611144	0
8	4509	735.502515906025	0
8	4514	740.047518790289	0
8	4519	740.76865133797	0
8	4524	741.157931818185	0
8	4529	741.393396073966	0
8	4537	742.032878670627	0
8	4542	742.254097457341	0
8	4545	742.475316244055	0
8	4550	743.259463684601	0
8	4557	744.569592404815	0
8	4562	744.790811191529	0
8	4565	745.012029978243	0
8	4570	745.556945084162	0
8	4575	747.241175271444	0
8	4580	748.195473245285	0
8	4585	751.653455624302	0
8	4590	752.753842754207	0
8	4597	752.975250262467	0
8	4602	753.196469049181	0
8	4605	753.417687835895	0
8	4610	754.984022357786	0
8	4615	755.928386615506	0
8	4620	756.677929452718	0
8	4627	758.978303092514	0
8	4630	759.199521879228	0
8	4637	759.56820108533	0
8	4642	759.789419872044	0
8	4645	760.010638658758	0
8	4652	760.87309423157	0
8	4655	761.094313018284	0
8	4660	761.658027433756	0
8	4665	763.256269249037	0
8	4670	763.523695044836	0
8	4677	763.82344602614	0
8	4680	764.044664812854	0
8	4688	764.461989658952	0
8	4693	764.683208445666	0
8	4700	764.90442723238	0
8	4703	765.125646019094	0
8	4706	765.346864805808	0
8	4711	771.99486691107	0
8	4716	772.53916296471	0
8	4721	776.700619775363	0
8	4728	778.397499513717	0
8	4731	778.618718300431	0
8	4736	779.627823484783	0
8	4741	779.94406216467	0
8	4746	780.647292211075	0
8	4751	781.6207198934	0
8	4756	782.665930405119	0
8	4761	782.923570700012	0
8	4766	783.40071901557	0
8	4773	784.134481800645	0
8	4776	784.355700587359	0
8	4781	785.314637763494	0
8	4786	789.349192736098	0
8	4793	789.791724794743	0
8	4796	790.012943581457	0
8	4801	791.213910684385	0
8	4808	792.270166653456	0
8	4811	792.49138544017	0
8	4816	793.369851731432	0
8	4821	793.792171746973	0
8	4826	794.696576139157	0
8	4831	795.104378590292	0
8	4837	800.557071627596	0
8	4842	801.035885397919	0
8	4847	801.99421159692	0
8	4852	802.5477519264	0
8	4857	804.085949204676	0
8	4862	804.375521728495	0
8	4869	806.278201545346	0
8	4872	806.49942033206	0
8	4877	808.491403987652	0
8	4882	809.50145763272	0
8	4887	809.934943284374	0
8	4892	810.361357066602	0
8	4897	810.875277730546	0
8	4902	811.505397371537	0
8	4907	812.023612459345	0
8	4912	813.400055061322	0
8	4921	814.463803945332	0
8	4924	814.685022732046	0
8	4927	814.90624151876	0
8	4932	816.81024833667	0
8	4937	817.841812911218	0
8	4942	818.152444524333	0
8	4947	819.093459195736	0
8	4952	820.123657861724	0
8	4959	820.649447692444	0
8	4964	820.870666479158	0
8	4967	821.091885265872	0
8	4974	821.922511305381	0
8	4979	822.143730092095	0
8	4982	822.364948878809	0
8	4988	823.69570848008	0
8	4993	824.561288316362	0
8	4998	825.522515564166	0
8	5003	825.902822709549	0
8	5010	826.222153660581	0
8	5013	826.443372447295	0
8	5018	828.192487802209	0
8	5023	828.601409786694	0
8	5028	828.880018130648	0
8	5035	829.526164146942	0
8	5040	829.747382933656	0
8	5045	829.96860172037	0
8	5048	830.189820507084	0
8	5053	831.12589846849	0
8	5058	832.287998053293	0
8	5063	832.654847306155	0
8	5068	832.994273792978	0
8	5073	834.841422863239	0
8	5080	836.321359948093	0
8	5083	836.542578734807	0
8	5088	837.907656762267	0
8	5093	839.282907998641	0
8	5098	839.689628898916	0
8	5105	840.329434576488	0
8	5108	840.550653363202	0
8	5113	841.263306825746	0
8	5118	842.830971021608	0
8	5125	843.419060775738	0
8	5130	843.640279562452	0
8	5133	843.861498349166	0
8	5139	846.428693783602	0
8	5144	847.009419124055	0
8	5149	848.173760562144	0
8	5154	848.607669151872	0
8	5159	849.068662483697	0
8	5166	849.856379479364	0
8	5169	850.077598266078	0
8	5174	851.111647698221	0
8	5179	851.375441101089	0
8	5184	852.299160567309	0
8	5189	853.066887020851	0
8	5196	854.087546220837	0
8	5199	854.308765007551	0
8	5206	854.675049220657	0
8	5209	854.896268007371	0
8	5214	856.654729647354	0
8	5219	856.956055501972	0
8	5224	858.545440103251	0
8	5231	859.547001683728	0
8	5234	859.768220470442	0
8	5239	861.153266053182	0
8	5244	862.293257674935	0
8	5249	862.914415778054	0
8	5256	864.037983106047	0
8	5261	864.259201892761	0
8	5264	864.480420679475	0
8	5271	866.217874090847	0
8	5274	866.439092877561	0
8	5279	867.074174166743	0
8	5284	868.005567258087	0
8	5290	868.613176275735	0
8	5299	870.236971168201	0
8	5302	870.458189954915	0
8	5305	870.679408741629	0
8	5312	872.09406215818	0
8	5317	872.315280944894	0
8	5320	872.536499731608	0
8	5325	873.362907551623	0
8	5330	873.883096948458	0
8	5337	874.373345232187	0
8	5344	874.594564018901	0
8	5347	874.815782805615	0
8	5350	875.037001592329	0
8	5355	876.083379157318	0
8	5360	877.097646958797	0
8	5367	877.765939690239	0
8	5372	877.987158476953	0
8	5375	878.208377263667	0
8	5380	879.167929645776	0
8	5385	879.527305496099	0
8	5390	880.297121849444	0
8	5395	880.714762243835	0
8	5400	880.979200470317	0
8	5405	881.391210409982	0
8	5412	882.118633231987	0
8	5415	882.339852018701	0
8	5422	884.935217879912	0
8	5425	885.156436666626	0
8	5430	890.560736309908	0
8	5435	890.80255259052	0
8	5441	891.276754664427	0
8	5450	892.071695769443	0
8	5453	892.292914556157	0
8	5460	892.514133342871	0
8	5463	892.735352129585	0
8	5466	892.956570916299	0
8	5473	893.351193120067	0
8	5476	893.572411906781	0
8	5481	894.783020582724	0
8	5486	895.818421848071	0
8	5493	896.644416657153	0
8	5496	896.865635443867	0
8	5501	897.126331161269	0
8	5506	897.629614506602	0
8	5511	898.096552380903	0
8	5518	898.709763502978	0
8	5521	898.930982289692	0
8	5526	899.905385457897	0
8	5531	900.411690201535	0
8	5536	901.06673243694	0
8	5541	901.534025654385	0
8	5548	901.85528783093	0
8	5551	902.076506617644	0
8	5556	902.871004539066	0
8	5561	905.071917222377	0
8	5566	905.587951618123	0
8	5571	908.482429545821	0
8	5576	909.598115279618	0
8	5581	910.379798301896	0
8	5586	913.392295069097	0
8	5592	914.052615694966	0
8	5599	915.75540232157	0
8	5602	915.976621108284	0
8	5607	916.619919184284	0
8	5612	918.096410933331	0
8	5617	918.656819436549	0
8	5622	920.011577487462	0
8	5629	920.38730653664	0
8	5632	920.608525323354	0
8	5637	921.67398767539	0
8	5642	922.815927147348	0
8	5647	923.109478845037	0
8	5652	924.823261504348	0
8	5657	925.778896470558	0
8	5662	926.750016556169	0
8	5667	927.558505681205	0
8	5672	928.610839342465	0
8	5677	929.181523834348	0
8	5682	930.309105629829	0
8	5689	931.444493932082	0
8	5692	931.665712718796	0
8	5697	933.251284072889	0
8	5704	936.230243656538	0
8	5707	936.451462443252	0
8	5712	937.002901400707	0
8	5719	938.942917400495	0
8	5722	939.164136187209	0
8	5727	939.611169264163	0
8	5732	940.079278988365	0
8	5737	940.968930669379	0
8	5743	941.964452637358	0
8	5754	944.381074830979	0
8	5759	944.602293617693	0
8	5762	944.823512404407	0
8	5765	945.044731191121	0
8	5768	945.265949977835	0
8	5775	945.78138055859	0
8	5778	946.002599345304	0
8	5783	946.286532476703	0
8	5788	947.277368286491	0
8	5793	947.699656696781	0
8	5798	948.25068781386	0
8	5803	948.86337196641	0
8	5808	950.216758423714	0
8	5813	950.622156516575	0
8	5820	951.89315570578	0
8	5823	952.114374492494	0
8	5830	952.489229009975	0
8	5833	952.710447796689	0
8	5838	953.719800626429	0
8	5845	955.103726285202	0
8	5848	955.324945071916	0
8	5853	956.403338849869	0
8	5858	956.907169227494	0
8	5863	957.487690059555	0
8	5868	958.378467864649	0
8	5873	958.836949736402	0
8	5878	959.324841312456	0
8	5883	962.621806094471	0
8	5888	963.717801545282	0
8	5896	964.13512639138	0
8	5899	964.356345178094	0
8	5904	964.745253625185	0
8	5909	967.609709093554	0
8	5914	967.880947462444	0
8	5919	968.267824582635	0
8	5924	968.991409373552	0
8	5929	969.94944979618	0
8	5936	970.310305820699	0
8	5939	970.531524607413	0
8	5944	972.179633149588	0
8	5953	973.007131667469	0
8	5956	973.228350454183	0
8	5959	973.449569240897	0
8	5966	974.039004019677	0
8	5969	974.260222806391	0
8	5974	974.96601632875	0
8	5979	977.11405074724	0
8	5984	977.518197831032	0
8	5991	977.939453472619	0
8	5998	978.160672259333	0
8	6001	978.381891046047	0
8	6004	978.603109832761	0
8	6011	978.896650775738	0
8	6014	979.117869562452	0
8	6019	979.707878800673	0
8	6024	981.947257394227	0
8	6029	983.294756714374	0
8	6034	983.898839347724	0
8	6041	985.613464137781	0
8	6049	986.030788983879	0
8	6054	986.252007770593	0
8	6057	986.473226557307	0
8	6060	986.694445344021	0
8	6067	987.340006433026	0
8	6070	987.56122521974	0
8	6075	988.41161972009	0
8	6080	990.893694929977	0
8	6087	991.614700779837	0
8	6090	991.835919566551	0
8	6099	992.105977332714	0
8	6102	992.327196119428	0
8	6105	992.548414906142	0
8	6112	993.132804095237	0
8	6115	993.354022881951	0
8	6120	994.887221296993	0
8	6125	995.234146423229	0
8	6130	996.703773531891	0
8	6137	997.417968926722	0
8	6142	997.639187713436	0
8	6145	997.86040650015	0
8	6150	999.017073433385	0
8	6155	999.268260759045	0

