version 2
run General-114-20240201-11:04:19-40057
attr configname General
attr datetime 20240201-11:04:19
attr experiment General
attr inifile main.ini
attr iterationvars "$0=2.0, $1=3.5, $2=70"
attr iterationvarsf 2.0,3.5,70-
attr measurement "$0=2.0, $1=3.5, $2=70"
attr network Rete
attr processid 40057
attr repetition 14
attr replication #14
attr resultdir results
attr runnumber 114
attr seedset 114
param Rete.lambda 2.0
param Rete.a 0.3s
param Rete.b 3.5s
param Rete.c 0.1s
param Rete.d 0.3s
param Rete.mu 3.0
param Rete.source2.interArrivalTime exponential(1s/lambda)
param Rete.source2.jobServiceTime exponential(1s/mu)
param Rete.source2.deadline uniform(a,b)
param Rete.server2.j 70
param Rete.server2.V uniform(c,d)

vector 0 Rete.passiveQueue queueLength:vector ETV
attr interpolationmode sample-hold
attr title "queue length, vector"
vector 1 Rete.sink lifeTime:vector ETV
attr interpolationmode none
attr title "lifetime of arrived jobs, vector"
attr unit s
vector 2 Rete.sink totalQueueingTime:vector ETV
attr interpolationmode none
attr title "the total time spent in queues by arrived jobs, vector"
attr unit s
vector 3 Rete.sink queuesVisited:vector ETV
attr interpolationmode none
attr title "the total number of queues visited by arrived jobs, vector"
vector 4 Rete.sink totalServiceTime:vector ETV
attr interpolationmode none
attr title "the total time spent  by arrived jobs, vector"
attr unit s
vector 5 Rete.sink totalDelayTime:vector ETV
attr interpolationmode none
attr title "the total time spent in delay nodes by arrived jobs, vector"
attr unit s
vector 6 Rete.sink delaysVisited:vector ETV
attr interpolationmode none
attr title "the total number of delays visited by arrived jobs, vector"
vector 7 Rete.sink generation:vector ETV
attr interpolationmode none
attr title "the generation of the arrived jobs, vector"
vector 8 Rete.passiveQueue queueingTime:vector ETV
attr interpolationmode none
attr title "queueing time at dequeue, vector"
attr unit s
0	0	0	0
0	10	1.418721587976	1
0	12	1.753840577798	2
0	14	1.768827853386	3
0	15	2.0601525281	2
0	17	2.0601525281	1
0	18	2.0601525281	0
0	24	2.498691034561	1
0	26	2.72326038997	2
0	28	2.961732847772	3
0	30	3.033209066626	4
0	32	3.148158290582	5
0	33	3.170834442406	4
0	35	3.170834442406	3
0	36	3.170834442406	2
0	37	3.170834442406	1
0	38	3.170834442406	0
0	41	3.516910663235	1
0	42	3.847706238271	0
0	49	4.602891431058	1
0	50	4.64138140385	0
0	57	5.265328635522	1
0	59	5.658014461549	2
0	60	5.824472436652	1
0	62	5.824472436652	0
0	68	6.051712370601	1
0	70	6.259922093464	2
0	72	6.367773779884	3
0	73	6.548059476477	2
0	75	6.548059476477	1
0	76	6.548059476477	0
0	87	7.639294279583	1
0	89	7.863324028962	2
0	91	7.90687017164	3
0	92	8.277036990641	2
0	94	8.277036990641	1
0	95	8.277036990641	0
0	101	9.145689568717	1
0	102	9.268439263436	0
0	109	9.852412992156	1
0	111	10.140392158454	2
0	112	10.244783765253	1
0	114	10.244783765253	0
0	120	10.78148265476	1
0	121	10.932046280611	0
0	133	12.948511704443	1
0	135	13.138572335268	2
0	137	13.148974328026	3
0	139	13.354052239505	4
0	140	13.488769087992	3
0	142	13.488769087992	2
0	143	13.488769087992	1
0	144	13.488769087992	0
0	150	14.512403215264	1
0	151	14.534110078663	0
0	180	20.452991917447	1
0	182	20.743460849825	2
0	184	20.983036581378	3
0	185	21.081010486501	2
0	187	21.081010486501	1
0	188	21.081010486501	0
0	194	21.915209165087	1
0	196	21.925486100916	2
0	198	22.005249761407	3
0	199	22.019004377792	2
0	201	22.019004377792	1
0	202	22.019004377792	0
0	205	22.218529468597	1
0	207	22.339978302104	2
0	208	22.695876173657	1
0	210	22.695876173657	0
0	216	24.571520948786	1
0	217	25.215480975563	0
0	224	25.671155456157	1
0	226	25.930759152859	2
0	227	26.15864700584	1
0	229	26.15864700584	0
0	235	26.594511809473	1
0	237	26.713039200419	2
0	239	26.911166047411	3
0	240	27.003968287758	2
0	242	27.003968287758	1
0	243	27.003968287758	0
0	249	27.477374823237	1
0	250	27.845729164228	0
0	257	28.542834762671	1
0	259	28.572398444011	2
0	260	28.593514275783	1
0	262	28.593514275783	0
0	275	30.725378710199	1
0	276	30.736387166602	0
0	290	34.036920558339	1
0	291	34.259344996545	0
0	298	34.790976511099	1
0	300	34.906552808529	2
0	302	35.076892519748	3
0	304	35.083763765416	4
0	306	35.344016942586	5
0	307	35.365099218101	4
0	309	35.365099218101	3
0	310	35.365099218101	2
0	311	35.365099218101	1
0	312	35.365099218101	0
0	315	35.392902821023	1
0	317	35.873165545738	2
0	319	35.995421077518	3
0	320	36.041971013966	2
0	322	36.041971013966	1
0	323	36.041971013966	0
0	329	36.429982892572	1
0	331	36.523592307792	2
0	332	36.871400767548	1
0	334	36.871400767548	0
0	340	37.586835229707	1
0	342	37.763480214788	2
0	344	37.810760853623	3
0	345	38.133978712823	2
0	347	38.133978712823	1
0	348	38.133978712823	0
0	354	38.653905046971	1
0	355	39.00598069014	0
0	362	39.718897687811	1
0	364	39.877625867492	2
0	365	40.100738470843	1
0	367	40.100738470843	0
0	383	43.334444913364	1
0	385	43.390965872795	2
0	387	43.742158837031	3
0	388	43.809705312365	2
0	390	43.809705312365	1
0	391	43.809705312365	0
0	407	49.624613079561	1
0	408	49.950975029234	0
0	415	53.003264637179	1
0	417	53.039928886415	2
0	418	53.460481671443	1
0	420	53.460481671443	0
0	426	54.763065083112	1
0	427	54.911741746843	0
0	434	56.22703700698	1
0	436	56.584848303227	2
0	437	56.733571506059	1
0	439	56.733571506059	0
0	445	58.575237945636	1
0	446	58.693243609782	0
0	453	59.109701664836	1
0	454	59.477790058614	0
0	461	60.531920282095	1
0	463	60.719303905992	2
0	464	60.81367833217	1
0	466	60.81367833217	0
0	477	63.548779005129	1
0	479	63.927276893417	2
0	480	64.128052911109	1
0	482	64.128052911109	0
0	488	64.443956809729	1
0	490	64.523803710844	2
0	491	64.918859384104	1
0	493	64.918859384104	0
0	499	65.345347463844	1
0	500	65.904294652912	0
0	507	66.06992266173	1
0	509	66.366494056121	2
0	510	66.73441948342	1
0	512	66.73441948342	0
0	523	67.842742730587	1
0	525	68.0513750849	2
0	526	68.198892505559	1
0	528	68.198892505559	0
0	534	68.572643084374	1
0	536	68.577229008149	2
0	537	69.09211003092	1
0	539	69.09211003092	0
0	545	70.037677833559	1
0	546	70.473795015825	0
0	553	70.990096645843	1
0	555	71.369486849594	2
0	556	71.413597899475	1
0	558	71.413597899475	0
0	564	71.679173951402	1
0	566	71.940626296981	2
0	567	72.347798050669	1
0	569	72.347798050669	0
0	580	74.23135750543	1
0	581	74.723522283093	0
0	588	75.280863614548	1
0	590	75.598376969039	2
0	591	75.601504957545	1
0	593	75.601504957545	0
0	601	77.145752260932	1
0	603	77.342908076659	2
0	604	77.800957470734	1
0	606	77.800957470734	0
0	612	78.161236945913	1
0	614	78.313303414936	2
0	616	78.374129763849	3
0	617	78.657823630741	2
0	619	78.657823630741	1
0	620	78.657823630741	0
0	626	79.085290894371	1
0	628	79.156906180998	2
0	631	79.949687250564	1
0	632	79.949687250564	0
0	638	82.263614319478	1
0	640	82.364449785363	2
0	641	82.733964604223	1
0	643	82.733964604223	0
0	649	83.370698481831	1
0	651	83.559103690705	2
0	652	83.64216223903	1
0	654	83.64216223903	0
0	660	84.35182304168	1
0	662	84.499654111064	2
0	663	84.688079757964	1
0	665	84.688079757964	0
0	671	85.596435177077	1
0	673	85.719094961842	2
0	674	85.747793174892	1
0	676	85.747793174892	0
0	682	86.190103536122	1
0	684	86.418141671136	2
0	686	86.586846064144	3
0	687	86.618296603473	2
0	689	86.618296603473	1
0	690	86.618296603473	0
0	696	87.082320262216	1
0	698	87.129023195857	2
0	700	87.156693453355	3
0	702	87.416027842118	4
0	704	87.460935563595	5
0	705	87.545211372576	4
0	707	87.545211372576	3
0	708	87.545211372576	2
0	709	87.545211372576	1
0	710	87.545211372576	0
0	721	89.049358974131	1
0	722	89.236989258355	0
0	729	89.732723490956	1
0	731	90.15189727171	2
0	732	90.268277908906	1
0	734	90.268277908906	0
0	740	91.213893099014	1
0	742	91.247470245215	2
0	743	91.377574738863	1
0	745	91.377574738863	0
0	751	92.479213497233	1
0	752	92.568705593649	0
0	759	93.205426731319	1
0	760	93.370991227976	0
0	772	95.194450486589	1
0	774	95.375574727768	2
0	775	95.526312629572	1
0	777	95.526312629572	0
0	783	96.576121742482	1
0	784	97.010807984731	0
0	791	97.520593305668	1
0	792	97.820982299716	0
0	799	98.279584685728	1
0	801	98.734743930206	2
0	802	98.929632038101	1
0	804	98.929632038101	0
0	810	100.051390387849	1
0	812	100.075419577634	2
0	813	100.332059445316	1
0	815	100.332059445316	0
0	821	101.910701519692	1
0	823	102.127714483238	2
0	825	102.363572495191	3
0	827	102.506884804789	4
0	828	102.516381915542	3
0	830	102.516381915542	2
0	831	102.516381915542	1
0	832	102.516381915542	0
0	835	102.557527182699	1
0	837	102.809194540843	2
0	838	103.193253711407	1
0	840	103.193253711407	0
0	861	107.573999432191	1
0	862	107.622634152207	0
0	869	108.935360766881	1
0	871	109.10962717497	2
0	872	109.314773736985	1
0	874	109.314773736985	0
0	885	111.20767586628	1
0	887	111.212606633708	2
0	888	111.239993473998	1
0	890	111.239993473998	0
0	893	111.243106299264	1
0	895	111.452313548794	2
0	896	111.916865269863	1
0	898	111.916865269863	0
0	909	113.19513140585	1
0	910	113.855951818979	0
0	917	115.002469832318	1
0	919	115.073448099769	2
0	920	115.547789450703	1
0	922	115.547789450703	0
0	933	116.400715398367	1
0	935	116.754232287539	2
0	937	116.878567699541	3
0	938	117.065270847326	2
0	940	117.065270847326	1
0	941	117.065270847326	0
0	947	117.401600610866	1
0	949	117.432001686426	2
0	950	117.912710515004	1
0	952	117.912710515004	0
0	958	118.181792884331	1
0	960	118.594843612327	2
0	961	118.599570549727	1
0	963	118.599570549727	0
0	971	119.617122755364	1
0	972	120.07740144739	0
0	979	120.697026700854	1
0	981	120.87225524224	2
0	982	121.029093562019	1
0	984	121.029093562019	0
0	990	122.050834239939	1
0	992	122.609005628204	2
0	993	122.676800194989	1
0	995	122.676800194989	0
0	1006	124.011944767132	1
0	1007	124.656001213408	0
0	1014	125.164723733709	1
0	1015	125.466092642236	0
0	1027	126.824225510716	1
0	1028	127.390372439219	0
0	1035	127.773768986406	1
0	1036	128.413997353544	0
0	1043	128.630573014504	1
0	1045	128.950948683459	2
0	1047	128.996420356485	3
0	1048	129.19015685344	2
0	1050	129.19015685344	1
0	1051	129.19015685344	0
0	1057	129.678882257845	1
0	1059	129.798675777814	2
0	1060	129.911553827103	1
0	1062	129.911553827103	0
0	1068	130.218688614896	1
0	1070	130.346250559691	2
0	1071	130.601740239801	1
0	1073	130.601740239801	0
0	1079	130.932485609287	1
0	1081	131.228378722677	2
0	1082	131.349219781924	1
0	1084	131.349219781924	0
0	1095	132.836780472044	1
0	1097	132.920247375594	2
0	1098	133.021738444028	1
0	1100	133.021738444028	0
0	1106	133.350470263997	1
0	1108	133.425170439759	2
0	1110	133.525553683371	3
0	1111	134.01021590151	2
0	1113	134.01021590151	1
0	1114	134.01021590151	0
0	1120	135.123278809015	1
0	1122	135.310610734223	2
0	1124	135.508174200313	3
0	1125	135.612429954905	2
0	1127	135.612429954905	1
0	1128	135.612429954905	0
0	1134	135.880768023423	1
0	1135	136.330586847529	0
0	1142	136.965218681607	1
0	1144	137.15071049867	2
0	1145	137.384861381411	1
0	1147	137.384861381411	0
0	1153	137.814717964584	1
0	1154	138.12248228117	0
0	1161	138.729688009667	1
0	1162	139.164269003545	0
0	1174	141.364362896449	1
0	1176	141.530161979002	2
0	1177	141.644848979812	1
0	1179	141.644848979812	0
0	1185	142.177079550634	1
0	1187	142.306198694773	2
0	1188	142.679447394639	1
0	1190	142.679447394639	0
0	1201	143.681875877656	1
0	1203	144.041570718347	2
0	1204	144.354022532256	1
0	1206	144.354022532256	0
0	1212	145.720164203622	1
0	1213	146.17896685121	0
0	1220	147.091041571045	1
0	1222	147.183750924463	2
0	1223	147.497934872483	1
0	1225	147.497934872483	0
0	1231	147.94963463035	1
0	1232	148.197234051994	0
0	1239	148.575567725407	1
0	1241	148.6829811833	2
0	1243	148.796232493538	3
0	1245	148.939732441205	4
0	1246	149.238322211635	3
0	1248	149.238322211635	2
0	1249	149.238322211635	1
0	1250	149.238322211635	0
0	1256	151.787462641901	1
0	1257	152.086703128547	0
0	1269	154.330133111988	1
0	1271	154.742184963095	2
0	1272	154.812151025406	1
0	1274	154.812151025406	0
0	1280	155.650046720148	1
0	1283	156.05122187937	0
0	1289	156.262450332605	1
0	1291	156.332095200553	2
0	1292	156.806977555275	1
0	1294	156.806977555275	0
0	1305	159.062898403797	1
0	1307	159.337546365394	2
0	1308	159.467804027803	1
0	1310	159.467804027803	0
0	1316	159.687058957598	1
0	1317	160.244295901537	0
0	1329	162.038453851575	1
0	1330	162.259340631887	0
0	1342	163.739128886865	1
0	1343	164.314126613879	0
0	1350	165.230681061454	1
0	1351	165.758150233176	0
0	1358	166.52885688391	1
0	1359	166.5785530443	0
0	1371	168.558509713847	1
0	1373	168.719133598212	2
0	1374	168.801357512771	1
0	1376	168.801357512771	0
0	1382	170.542237372368	1
0	1383	170.656322192574	0
0	1390	172.041594049542	1
0	1391	172.225597807089	0
0	1413	175.746195880301	1
0	1415	175.986204905844	2
0	1417	175.995692318045	3
0	1418	176.416859848851	2
0	1420	176.416859848851	1
0	1421	176.416859848851	0
0	1427	176.901001532432	1
0	1429	177.081181888959	2
0	1430	177.428648074313	1
0	1432	177.428648074313	0
0	1438	178.069065706332	1
0	1440	178.190681432983	2
0	1441	178.546527821742	1
0	1443	178.546527821742	0
0	1449	179.034260965533	1
0	1451	179.073177690145	2
0	1452	179.562274692254	1
0	1454	179.562274692254	0
0	1460	179.756809083138	1
0	1462	180.15217670761	2
0	1463	180.394205583619	1
0	1465	180.394205583619	0
0	1481	183.134958747713	1
0	1482	183.179623140438	0
0	1489	184.733756475842	1
0	1491	184.794658389158	2
0	1492	185.095137420927	1
0	1494	185.095137420927	0
0	1505	188.068229708033	1
0	1506	188.136559539938	0
0	1513	189.619585451784	1
0	1514	189.973627175736	0
0	1521	190.61471367393	1
0	1522	190.907583379591	0
0	1529	191.242197623478	1
0	1531	191.742346155582	2
0	1532	191.794031925396	1
0	1534	191.794031925396	0
0	1540	192.415585141307	1
0	1541	192.6129687281	0
0	1553	194.730463179645	1
0	1555	195.171726358682	2
0	1557	195.337964621455	3
0	1558	195.405763148242	2
0	1560	195.405763148242	1
0	1561	195.405763148242	0
0	1567	195.824763476873	1
0	1568	196.403956329684	0
0	1580	197.836295003393	1
0	1582	197.989994464154	2
0	1583	198.143544953837	1
0	1585	198.143544953837	0
0	1591	199.146725212549	1
0	1592	199.70283104763	0
0	1599	200.419185991564	1
0	1601	200.509428331059	2
0	1602	200.588141642684	1
0	1604	200.588141642684	0
0	1620	204.956762965576	1
0	1621	205.137407391826	0
0	1628	205.246217858149	1
0	1630	205.354023738379	2
0	1632	205.384752477691	3
0	1634	205.593030405071	4
0	1635	205.842268150485	3
0	1637	205.842268150485	2
0	1638	205.842268150485	1
0	1639	205.842268150485	0
0	1645	206.169201407257	1
0	1647	206.211286800505	2
0	1649	206.427913133845	3
0	1651	206.512328412546	4
0	1653	206.611516363753	5
0	1654	206.704626243245	4
0	1656	206.704626243245	3
0	1657	206.704626243245	2
0	1658	206.704626243245	1
0	1659	206.704626243245	0
0	1665	207.233755109172	1
0	1666	207.564342274189	0
0	1673	208.970018138261	1
0	1675	209.073370127233	2
0	1676	209.097558968149	1
0	1678	209.097558968149	0
0	1681	209.384413857472	1
0	1682	209.774430764014	0
0	1689	210.189906526758	1
0	1690	210.784076888429	0
0	1697	211.313134677997	1
0	1699	211.38452896234	2
0	1701	211.633217423436	3
0	1702	211.969810120366	2
0	1704	211.969810120366	1
0	1705	211.969810120366	0
0	1711	213.063524062841	1
0	1713	213.158395036008	2
0	1714	213.356038080493	1
0	1716	213.356038080493	0
0	1722	213.692556329196	1
0	1723	214.154306768147	0
0	1730	214.560577283212	1
0	1731	215.000987242879	0
0	1738	215.310612540609	1
0	1740	215.693642669088	2
0	1741	215.695008258802	1
0	1743	215.695008258802	0
0	1751	216.554979970186	1
0	1753	216.582271047533	2
0	1754	217.204020641999	1
0	1756	217.204020641999	0
0	1762	218.163845838213	1
0	1763	218.227201058419	0
0	1770	218.595280509858	1
0	1771	219.09827841688	0
0	1778	220.662599027881	1
0	1779	221.330103519625	0
0	1786	222.134633069834	1
0	1787	222.162053908936	0
0	1791	222.399547967244	1
0	1793	222.809663546018	2
0	1794	222.838925704801	1
0	1796	222.838925704801	0
0	1807	226.330613586274	1
0	1809	226.797105098952	2
0	1810	226.797529198863	1
0	1812	226.797529198863	0
0	1815	226.855508568008	1
0	1817	227.157259154704	2
0	1818	227.474400994728	1
0	1820	227.474400994728	0
0	1836	230.215219601627	1
0	1838	230.490355071406	2
0	1839	230.687298905805	1
0	1841	230.687298905805	0
0	1847	231.276458864807	1
0	1848	231.734524895151	0
0	1855	232.911986021802	1
0	1856	233.248204649059	0
0	1868	235.616149935628	1
0	1870	235.873319340855	2
0	1872	235.954581695671	3
0	1874	235.992281728863	4
0	1878	236.0908974356	5
0	1880	236.183706438348	6
0	1882	236.294139004803	7
0	1883	236.334323400717	6
0	1884	236.334323400717	5
0	1885	236.334323400717	4
0	1886	236.334323400717	3
0	1887	236.334323400717	2
0	1888	236.334323400717	1
0	1889	236.334323400717	0
0	1895	236.703460423507	1
0	1896	237.185159771621	0
0	1908	239.621824086045	1
0	1909	239.938291660225	0
0	1916	240.944629441184	1
0	1918	240.974139321292	2
0	1920	241.144022613061	3
0	1922	241.217583642389	4
0	1924	241.462556668399	5
0	1925	241.50128448641	4
0	1927	241.50128448641	3
0	1928	241.50128448641	2
0	1929	241.50128448641	1
0	1930	241.50128448641	0
0	1936	241.999984903071	1
0	1937	242.231831547961	0
0	1944	242.75729043368	1
0	1945	243.247269745236	0
0	1952	245.037106014741	1
0	1953	245.066839836101	0
0	1960	245.545161206263	1
0	1962	245.68869696636	2
0	1964	245.904707181908	3
0	1965	246.167553481064	2
0	1967	246.167553481064	1
0	1968	246.167553481064	0
0	1974	246.89438290284	1
0	1976	246.955018962103	2
0	1977	247.179857081947	1
0	1979	247.179857081947	0
0	1985	248.842904294618	1
0	1986	248.923501967305	0
0	1998	250.450617160133	1
0	1999	251.055543221064	0
0	2006	252.034039226843	1
0	2007	252.201210258656	0
0	2014	252.517132690411	1
0	2015	252.96597887718	0
0	2022	253.558495258384	1
0	2024	253.766384386849	2
0	2025	254.15989655726	1
0	2027	254.15989655726	0
0	2033	254.697863739715	1
0	2034	255.159561067037	0
0	2041	255.425020566647	1
0	2043	255.861098107865	2
0	2044	256.057797431872	1
0	2046	256.057797431872	0
0	2052	257.507006770213	1
0	2053	257.910326921394	0
0	2070	261.27035253773	1
0	2071	261.645940244604	0
0	2078	262.325065303765	1
0	2079	262.429141529196	0
0	2101	268.055767451471	1
0	2103	268.118892688053	2
0	2104	268.273226664135	1
0	2106	268.273226664135	0
0	2117	269.243643766696	1
0	2119	269.674181619458	2
0	2120	269.805071666672	1
0	2122	269.805071666672	0
0	2138	273.753237910893	1
0	2139	274.137038468391	0
0	2151	275.367431419599	1
0	2153	275.616317006579	2
0	2154	275.882246894362	1
0	2156	275.882246894362	0
0	2167	277.957574129834	1
0	2169	278.002103818375	2
0	2171	278.409543559664	3
0	2173	278.460080394263	4
0	2174	278.532705275799	3
0	2176	278.532705275799	2
0	2177	278.532705275799	1
0	2178	278.532705275799	0
0	2189	281.778188399987	1
0	2190	281.898595833919	0
0	2197	282.702457244981	1
0	2198	283.067077628311	0
0	2205	283.598130243019	1
0	2207	283.637155380758	2
0	2208	283.768600703853	1
0	2210	283.768600703853	0
0	2216	284.311314090665	1
0	2217	284.978884870021	0
0	2224	286.656151376303	1
0	2226	286.789030539621	2
0	2228	287.026842242218	3
0	2229	287.203974154643	2
0	2231	287.203974154643	1
0	2232	287.203974154643	0
0	2238	287.890114641755	1
0	2240	287.940464459007	2
0	2242	287.977522734613	3
0	2243	288.038526665569	2
0	2245	288.038526665569	1
0	2246	288.038526665569	0
0	2252	290.177039769981	1
0	2254	290.18280625682	2
0	2255	290.462049239766	1
0	2257	290.462049239766	0
0	2263	290.89618088772	1
0	2264	291.327629947739	0
0	2271	293.276618830804	1
0	2272	293.944576678232	0
0	2279	294.853738330311	1
0	2280	295.221509976152	0
0	2287	295.378955977377	1
0	2288	296.055652894649	0
0	2295	297.431419034294	1
0	2297	297.551958578405	2
0	2299	297.622583082311	3
0	2300	297.662751960514	2
0	2302	297.662751960514	1
0	2303	297.662751960514	0
0	2309	298.141012964972	1
0	2311	298.648795874869	2
0	2312	298.791429785043	1
0	2314	298.791429785043	0
0	2320	299.45474104555	1
0	2321	299.654965372557	0
0	2328	299.954171230306	1
0	2330	300.028759376623	2
0	2332	300.325865182599	3
0	2333	300.61819509524	2
0	2335	300.61819509524	1
0	2336	300.61819509524	0
0	2342	301.551741315248	1
0	2343	301.746074169489	0
0	2350	302.062706840429	1
0	2352	302.434547300547	2
0	2354	302.504251379127	3
0	2356	302.574723570125	4
0	2357	302.654749040201	3
0	2359	302.654749040201	2
0	2360	302.654749040201	1
0	2361	302.654749040201	0
0	2367	304.329822682276	1
0	2369	304.788978241125	2
0	2370	304.800029800124	1
0	2372	304.800029800124	0
0	2380	307.034946645514	1
0	2382	307.327204652804	2
0	2383	307.422186315386	1
0	2385	307.422186315386	0
0	2396	309.031670440523	1
0	2397	309.388654318246	0
0	2404	310.590852389804	1
0	2405	310.768095880346	0
0	2412	310.958413403478	1
0	2414	311.265116226865	2
0	2415	311.508688317184	1
0	2417	311.508688317184	0
0	2423	312.257737700623	1
0	2424	312.259232705614	0
0	2448	318.043254972435	1
0	2449	318.333516112039	0
0	2456	319.156198420019	1
0	2457	319.193641485852	0
0	2464	319.81441436565	1
0	2465	319.942815915007	0
0	2472	321.144915823916	1
0	2473	321.795932116133	0
0	2480	322.931286181654	1
0	2482	323.058353672775	2
0	2486	323.276035895011	3
0	2488	323.406834543377	4
0	2489	323.523497864941	3
0	2490	323.523497864941	2
0	2491	323.523497864941	1
0	2492	323.523497864941	0
0	2503	325.6475872109	1
0	2505	326.103950438729	2
0	2507	326.131409735417	3
0	2508	326.231609382417	2
0	2510	326.231609382417	1
0	2511	326.231609382417	0
0	2517	327.452461435722	1
0	2519	327.47858844643	2
0	2520	327.545962819849	1
0	2522	327.545962819849	0
0	2528	329.196582763761	1
0	2529	329.691560820217	0
0	2536	330.161974763076	1
0	2538	330.565356089209	2
0	2540	330.705885110522	3
0	2541	330.70962118647	2
0	2543	330.70962118647	1
0	2544	330.70962118647	0
0	2547	331.319887693236	1
0	2548	331.386492982335	0
0	2555	331.544505756237	1
0	2557	331.812721362682	2
0	2558	332.161602133837	1
0	2560	332.161602133837	0
0	2576	334.690178525842	1
0	2577	335.240363202487	0
0	2584	335.264418275295	1
0	2586	335.816421903465	2
0	2587	335.929342176605	1
0	2589	335.929342176605	0
0	2595	336.98734387362	1
0	2596	337.629641891615	0
0	2603	337.772059472117	1
0	2604	338.339560904798	0
0	2611	338.644943552123	1
0	2612	339.248015309739	0
0	2619	340.024397173244	1
0	2621	340.43600520115	2
0	2622	340.507985476985	1
0	2624	340.507985476985	0
0	2630	341.188488373515	1
0	2631	341.835467481766	0
0	2638	342.621770823972	1
0	2639	342.794117950935	0
0	2646	343.006699694086	1
0	2648	343.131281580123	2
0	2650	343.238956881376	3
0	2651	343.522457330353	2
0	2653	343.522457330353	1
0	2654	343.522457330353	0
0	2660	343.759202774218	1
0	2661	344.266076896595	0
0	2668	345.981390942675	1
0	2669	345.994202460299	0
0	2673	346.442954006214	1
0	2674	346.671074256164	0
0	2681	346.918533915496	1
0	2682	347.493235677066	0
0	2689	348.695099185631	1
0	2690	349.113709064291	0
0	2697	349.210322680547	1
0	2698	349.800234644346	0
0	2710	350.871224134127	1
0	2712	351.301866920017	2
0	2713	351.346533444937	1
0	2715	351.346533444937	0
0	2726	352.901510359884	1
0	2728	353.301690949757	2
0	2729	353.47290812647	1
0	2731	353.47290812647	0
0	2737	353.998411750346	1
0	2739	354.324987785516	2
0	2740	354.354814397578	1
0	2742	354.354814397578	0
0	2748	354.456163655317	1
0	2750	354.62550641448	2
0	2751	355.045070209146	1
0	2753	355.045070209146	0
0	2759	355.486296982255	1
0	2760	355.767365440663	0
0	2767	355.858565066992	1
0	2769	356.151207604176	2
0	2771	356.413702318425	3
0	2773	356.438944402669	4
0	2775	356.476225083226	5
0	2776	356.507211446028	4
0	2778	356.507211446028	3
0	2779	356.507211446028	2
0	2780	356.507211446028	1
0	2781	356.507211446028	0
0	2787	357.295671380791	1
0	2788	357.699740159744	0
0	2795	358.978301835998	1
0	2797	359.169351302983	2
0	2798	359.273937775201	1
0	2800	359.273937775201	0
0	2806	359.800147505445	1
0	2808	359.809146256307	2
0	2810	359.872997121266	3
0	2811	360.177180734298	2
0	2813	360.177180734298	1
0	2814	360.177180734298	0
0	2825	361.753858879622	1
0	2826	361.945892931232	0
0	2833	364.552094948983	1
0	2835	364.735795733666	2
0	2836	365.110236596475	1
0	2838	365.110236596475	0
0	2844	365.709942795636	1
0	2845	366.305704349254	0
0	2852	367.30193072757	1
0	2853	367.792837695503	0
0	2860	368.368159990525	1
0	2862	368.690947936188	2
0	2864	368.728490627298	3
0	2866	368.808249277382	4
0	2867	368.858584909643	3
0	2869	368.858584909643	2
0	2870	368.858584909643	1
0	2871	368.858584909643	0
0	2877	370.179374783244	1
0	2878	370.259308150172	0
0	2885	372.61579516157	1
0	2887	372.81366768339	2
0	2888	373.111064129773	1
0	2890	373.111064129773	0
0	2896	373.588346133401	1
0	2898	373.739789050174	2
0	2900	373.856631671978	3
0	2901	374.022393900194	2
0	2903	374.022393900194	1
0	2904	374.022393900194	0
0	2910	375.404701043431	1
0	2911	375.908561519087	0
0	2918	378.511070794856	1
0	2920	378.906623670839	2
0	2921	379.027383421156	1
0	2923	379.027383421156	0
0	2934	379.837496470783	1
0	2936	380.143409332123	2
0	2938	380.158795442006	3
0	2939	380.514118045449	2
0	2941	380.514118045449	1
0	2942	380.514118045449	0
0	2963	385.053859954975	1
0	2965	385.127332545928	2
0	2967	385.64252046117	3
0	2968	385.713937518247	2
0	2970	385.713937518247	1
0	2971	385.713937518247	0
0	2987	389.313035888081	1
0	2988	389.614661472584	0
0	2995	390.210972596304	1
0	2997	390.222636201917	2
0	2999	390.466710779933	3
0	3000	390.818822726518	2
0	3002	390.818822726518	1
0	3003	390.818822726518	0
0	3009	391.75083080692	1
0	3010	391.807653965195	0
0	3017	392.34305957738	1
0	3018	392.639110885429	0
0	3025	393.786960204112	1
0	3027	393.80836563883	2
0	3029	394.005638324069	3
0	3030	394.023023136277	2
0	3032	394.023023136277	1
0	3033	394.023023136277	0
0	3036	394.431151974943	1
0	3037	394.699894932142	0
0	3049	395.892461421938	1
0	3050	396.373473156212	0
0	3057	396.810304188026	1
0	3059	396.900552247744	2
0	3060	397.073256668839	1
0	3062	397.073256668839	0
0	3068	398.144598658196	1
0	3070	398.451926270021	2
0	3071	398.74974288052	1
0	3073	398.74974288052	0
0	3084	400.048036440276	1
0	3085	400.494859565089	0
0	3092	400.783194569332	1
0	3093	401.432012272357	0
0	3100	401.598122000966	1
0	3102	401.741919297523	2
0	3103	402.133093940809	1
0	3105	402.133093940809	0
0	3116	403.518849226259	1
0	3119	403.979643331796	0
0	3125	404.806636198467	1
0	3126	404.851478487873	0
0	3133	405.325226851239	1
0	3135	405.46603416873	2
0	3136	405.544900546387	1
0	3138	405.544900546387	0
0	3149	407.296302215876	1
0	3150	407.56930321361	0
0	3167	409.768734065141	1
0	3168	410.277613615128	0
0	3180	412.154480294405	1
0	3181	412.553532787007	0
0	3188	412.771019172665	1
0	3190	413.119507331526	2
0	3192	413.249316323105	3
0	3193	413.372119415565	2
0	3195	413.372119415565	1
0	3196	413.372119415565	0
0	3202	414.520251472839	1
0	3203	414.663897639187	0
0	3210	416.375472537272	1
0	3211	416.550404754544	0
0	3223	418.103203994404	1
0	3225	418.120118281327	2
0	3226	418.545455527183	1
0	3228	418.545455527183	0
0	3234	419.303605894771	1
0	3236	419.406381136395	2
0	3238	419.647021201134	3
0	3239	419.778836670865	2
0	3241	419.778836670865	1
0	3242	419.778836670865	0
0	3248	420.784748595595	1
0	3249	421.312209697485	0
0	3261	423.763153896893	1
0	3262	423.863750868468	0
0	3269	425.797150956436	1
0	3271	425.898924805445	2
0	3272	426.36972584217	1
0	3274	426.36972584217	0
0	3280	427.329739812766	1
0	3282	427.65227502595	2
0	3283	427.720367591193	1
0	3285	427.720367591193	0
0	3301	430.586262338269	1
0	3302	431.01131961643	0
0	3309	431.123693147674	1
0	3311	431.285804789371	2
0	3313	431.716800902145	3
0	3314	431.733180282075	2
0	3316	431.733180282075	1
0	3317	431.733180282075	0
0	3320	431.788716376766	1
0	3321	432.41005207794	0
0	3328	433.131888601156	1
0	3330	433.571348394615	2
0	3331	433.604052302973	1
0	3333	433.604052302973	0
0	3339	433.96951530061	1
0	3340	434.642291645619	0
0	3347	434.954982496152	1
0	3348	435.416371324157	0
0	3355	436.312258798291	1
0	3357	436.487989559073	2
0	3359	436.604161355293	3
0	3361	436.785778096372	4
0	3362	436.854812483119	3
0	3364	436.854812483119	2
0	3365	436.854812483119	1
0	3366	436.854812483119	0
0	3377	438.113935725688	1
0	3379	438.205024474546	2
0	3381	438.249577606888	3
0	3382	438.67881352156	2
0	3384	438.67881352156	1
0	3385	438.67881352156	0
0	3391	439.233944468386	1
0	3393	439.278856686412	2
0	3394	439.527241403131	1
0	3396	439.527241403131	0
0	3407	440.964201818398	1
0	3409	441.414759119863	2
0	3411	441.460414694611	3
0	3412	441.461825901513	2
0	3414	441.461825901513	1
0	3415	441.461825901513	0
0	3418	441.699384862858	1
0	3420	441.756607632424	2
0	3422	441.785793695207	3
0	3423	442.138697697378	2
0	3425	442.138697697378	1
0	3426	442.138697697378	0
0	3437	443.41517977905	1
0	3439	443.463886554781	2
0	3440	443.98467463967	1
0	3442	443.98467463967	0
0	3448	444.722143926759	1
0	3449	444.929083295891	0
0	3461	447.734525738472	1
0	3463	447.738072742771	2
0	3465	448.247774628353	3
0	3466	448.393897325564	2
0	3468	448.393897325564	1
0	3469	448.393897325564	0
0	3475	448.752297114156	1
0	3476	449.374635017353	0
0	3483	450.136464318878	1
0	3485	450.496338492091	2
0	3487	450.644889465221	3
0	3488	450.740095807942	2
0	3490	450.740095807942	1
0	3491	450.740095807942	0
0	3502	451.821496327466	1
0	3504	451.992952431015	2
0	3506	451.998870856935	3
0	3507	452.196425822094	2
0	3509	452.196425822094	1
0	3510	452.196425822094	0
0	3521	454.589704490581	1
0	3522	454.77804149192	0
0	3529	455.929855937186	1
0	3531	456.055590745498	2
0	3533	456.073015430984	3
0	3535	456.338342536864	4
0	3537	456.491803325022	5
0	3538	456.561254284727	4
0	3540	456.561254284727	3
0	3541	456.561254284727	2
0	3542	456.561254284727	1
0	3543	456.561254284727	0
0	3549	458.217139244723	1
0	3550	458.362061959584	0
0	3557	459.624084277815	1
0	3559	459.932724312856	2
0	3560	460.062035765816	1
0	3562	460.062035765816	0
0	3573	461.685930120845	1
0	3575	461.883859531802	2
0	3577	461.900405863963	3
0	3578	462.253961227193	2
0	3580	462.253961227193	1
0	3581	462.253961227193	0
0	3587	462.860061961633	1
0	3588	463.236866190695	0
0	3595	464.046675735483	1
0	3596	464.304340057424	0
0	3603	464.783083132737	1
0	3604	465.087415201901	0
0	3621	468.055480550929	1
0	3623	468.314226358744	2
0	3624	468.399463207708	1
0	3626	468.399463207708	0
0	3632	469.047909056687	1
0	3633	469.529400039523	0
0	3640	471.489513745772	1
0	3641	471.86935599761	0
0	3648	472.310544853891	1
0	3649	472.584214036058	0
0	3656	473.304283539714	1
0	3658	473.387897096613	2
0	3659	473.781899241693	1
0	3661	473.781899241693	0
0	3672	477.244512778302	1
0	3673	477.914271880662	0
0	3680	478.058434112386	1
0	3681	478.704262232792	0
0	3688	478.841255565904	1
0	3690	479.097730577286	2
0	3691	479.499020274125	1
0	3693	479.499020274125	0
0	3699	480.133839389375	1
0	3701	480.376892229134	2
0	3702	480.6867461169	1
0	3704	480.6867461169	0
0	3710	482.41695686807	1
0	3711	482.498480738021	0
0	3718	482.878220818711	1
0	3720	483.064322578318	2
0	3721	483.508808001161	1
0	3723	483.508808001161	0
0	3729	483.602873929893	1
0	3731	483.817836056089	2
0	3732	484.272943494453	1
0	3734	484.272943494453	0
0	3740	485.100315055224	1
0	3742	485.398966000398	2
0	3744	485.508268623795	3
0	3747	485.922812728073	2
0	3748	485.922812728073	1
0	3749	485.922812728073	0
0	3755	487.272322685226	1
0	3756	487.592048979118	0
0	3768	490.075961874856	1
0	3770	490.289315877984	2
0	3772	490.306614555222	3
0	3773	490.694279356601	2
0	3775	490.694279356601	1
0	3776	490.694279356601	0
0	3782	492.812866925353	1
0	3783	493.083567228257	0
0	3795	494.505160287618	1
0	3797	494.660005390792	2
0	3798	495.044656954081	1
0	3800	495.044656954081	0
0	3806	495.191699440825	1
0	3807	495.769144062982	0
0	3814	496.164902848714	1
0	3816	496.682577246871	2
0	3817	496.694674223585	1
0	3819	496.694674223585	0
0	3827	497.556267704959	1
0	3829	497.569913282616	2
0	3831	497.785149875567	3
0	3832	498.141620259313	2
0	3834	498.141620259313	1
0	3835	498.141620259313	0
0	3841	498.797017285439	1
0	3843	499.196172252701	2
0	3845	499.27966561115	3
0	3846	499.317273885438	2
0	3848	499.317273885438	1
0	3849	499.317273885438	0
0	3865	502.94770919258	1
0	3867	503.309065131702	2
0	3868	503.32498346138	1
0	3870	503.32498346138	0
0	3888	506.986021208897	1
0	3889	507.08271274686	0
0	3896	507.60228313241	1
0	3898	507.93228705847	2
0	3899	508.205642032546	1
0	3901	508.205642032546	0
0	3907	508.767020739866	1
0	3909	508.97487336669	2
0	3910	509.065273975276	1
0	3912	509.065273975276	0
0	3918	509.583593471718	1
0	3919	509.887373381334	0
0	3926	510.308494365408	1
0	3928	510.31314877362	2
0	3930	510.501532771496	3
0	3931	510.833149849861	2
0	3933	510.833149849861	1
0	3934	510.833149849861	0
0	3940	511.453064685108	1
0	3941	511.68276839129	0
0	3953	512.784642375836	1
0	3955	512.960188425368	2
0	3957	513.155420549338	3
0	3958	513.326378821799	2
0	3960	513.326378821799	1
0	3961	513.326378821799	0
0	3967	513.95251970548	1
0	3969	513.962295216698	2
0	3971	514.248091573952	3
0	3972	514.271508817913	2
0	3974	514.271508817913	1
0	3975	514.271508817913	0
0	3978	514.500951871553	1
0	3980	514.7171861883	2
0	3982	514.890223289002	3
0	3983	514.948380613778	2
0	3985	514.948380613778	1
0	3986	514.948380613778	0
0	3992	515.192993609312	1
0	3994	515.588715331248	2
0	3995	515.738351765436	1
0	3997	515.738351765436	0
0	4003	516.023306407772	1
0	4005	516.046357876399	2
0	4007	516.44490432356	3
0	4009	516.54898048216	4
0	4010	516.60227083197	3
0	4012	516.60227083197	2
0	4013	516.60227083197	1
0	4014	516.60227083197	0
0	4020	517.165947163437	1
0	4021	517.375921937082	0
0	4028	518.070604743072	1
0	4029	518.478583302677	0
0	4036	518.961400030177	1
0	4038	519.432037438063	2
0	4039	519.447964755285	1
0	4041	519.447964755285	0
0	4044	519.496196908895	1
0	4046	519.811576180457	2
0	4047	520.12483655115	1
0	4049	520.12483655115	0
0	4055	520.739216827097	1
0	4057	520.939319905284	2
0	4059	520.992234176497	3
0	4061	521.061431143191	4
0	4062	521.250149194954	3
0	4064	521.250149194954	2
0	4065	521.250149194954	1
0	4066	521.250149194954	0
0	4072	521.795954114007	1
0	4074	521.902874216963	2
0	4075	522.065381233645	1
0	4077	522.065381233645	0
0	4083	522.681743029626	1
0	4084	522.836467706917	0
0	4091	523.58234168515	1
0	4092	523.60208154878	0
0	4101	524.984016477897	1
0	4102	525.609712324678	0
0	4109	526.466292646248	1
0	4111	526.572723277103	2
0	4113	526.824420910508	3
0	4114	526.91413192387	2
0	4116	526.91413192387	1
0	4117	526.91413192387	0
0	4123	527.345622796743	1
0	4124	527.992560568947	0
0	4131	528.352826753256	1
0	4133	528.355858416926	2
0	4134	528.756102944729	1
0	4136	528.756102944729	0
0	4142	529.320647045927	1
0	4143	529.655719306841	0
0	4150	530.319647559772	1
0	4151	530.964551441444	0
0	4168	532.876338444983	1
0	4170	533.47042176449	2
0	4171	533.510079488361	1
0	4173	533.510079488361	0
0	4189	536.538238253572	1
0	4191	536.873352109272	2
0	4192	537.05912412519	1
0	4194	537.05912412519	0
0	4200	538.190279138503	1
0	4201	538.46182832482	0
0	4208	538.818622715512	1
0	4210	539.195846162518	2
0	4211	539.407008241417	1
0	4213	539.407008241417	0
0	4224	541.200206202061	1
0	4226	541.374371427114	2
0	4228	541.408667079379	3
0	4229	541.647121156055	2
0	4231	541.647121156055	1
0	4232	541.647121156055	0
0	4238	543.48424079371	1
0	4240	543.914204114193	2
0	4241	544.092562011734	1
0	4243	544.092562011734	0
0	4249	544.180371713856	1
0	4251	544.369684069469	2
0	4252	544.793531159692	1
0	4254	544.793531159692	0
0	4260	545.297297461834	1
0	4262	545.381933348052	2
0	4264	545.578714907011	3
0	4265	545.965890159315	2
0	4267	545.965890159315	1
0	4268	545.965890159315	0
0	4279	547.266551335172	1
0	4281	547.430563651495	2
0	4282	547.943154743471	1
0	4284	547.943154743471	0
0	4290	548.167047289775	1
0	4291	548.740745068729	0
0	4298	549.50255235393	1
0	4299	549.5447324753	0
0	4306	550.172473886958	1
0	4307	550.522263023651	0
0	4314	552.148847999297	1
0	4315	552.330057043628	0
0	4322	553.289888645257	1
0	4324	553.439551871935	2
0	4325	553.797009614286	1
0	4327	553.797009614286	0
0	4338	555.978780030941	1
0	4340	556.017496219241	2
0	4342	556.282223025377	3
0	4343	556.370153705846	2
0	4345	556.370153705846	1
0	4346	556.370153705846	0
0	4357	559.35543601428	1
0	4358	559.687635251021	0
0	4365	560.955868979375	1
0	4366	561.08376640878	0
0	4373	561.516556625366	1
0	4375	561.972966920256	2
0	4378	562.316567632846	1
0	4379	562.316567632846	0
0	4385	562.838563336298	1
0	4387	563.249519361688	2
0	4388	563.328609937105	1
0	4390	563.328609937105	0
0	4401	564.799343795112	1
0	4402	565.199445713073	0
0	4409	565.873928040934	1
0	4411	566.198059959032	2
0	4412	566.344185020739	1
0	4414	566.344185020739	0
0	4430	569.11717076481	1
0	4431	569.652804115531	0
0	4438	570.091892205709	1
0	4440	570.326949421075	2
0	4442	570.352542669599	3
0	4444	570.428103695408	4
0	4446	570.522712014577	5
0	4448	570.545114477966	6
0	4449	570.633714343816	5
0	4451	570.633714343816	4
0	4452	570.633714343816	3
0	4453	570.633714343816	2
0	4454	570.633714343816	1
0	4455	570.633714343816	0
0	4466	572.353814080675	1
0	4468	572.530340853223	2
0	4469	572.660597412577	1
0	4471	572.660597412577	0
0	4482	575.041256970238	1
0	4483	575.511036156878	0
0	4490	575.923517930461	1
0	4492	576.027653653865	2
0	4493	576.529811900305	1
0	4495	576.529811900305	0
0	4501	578.552939558761	1
0	4503	578.89308733918	2
0	4505	578.938886429512	3
0	4506	579.024287273879	2
0	4508	579.024287273879	1
0	4509	579.024287273879	0
0	4515	579.496669084876	1
0	4517	579.789934950547	2
0	4518	580.001801617886	1
0	4520	580.001801617886	0
0	4526	580.698997186476	1
0	4527	581.349325806128	0
0	4534	582.305779680043	1
0	4535	582.442197437935	0
0	4542	583.702602371609	1
0	4544	583.756532964324	2
0	4546	584.152452994526	3
0	4547	584.152889832732	2
0	4549	584.152889832732	1
0	4550	584.152889832732	0
0	4553	584.804339338695	1
0	4554	584.829761628597	0
0	4558	585.205538193862	1
0	4559	585.506633424462	0
0	4566	585.907005705917	1
0	4567	586.434625498453	0
0	4574	588.474571296694	1
0	4576	588.67567457079	2
0	4577	589.034629262761	1
0	4579	589.034629262761	0
0	4595	591.724521299444	1
0	4596	591.78317858211	0
0	4603	592.888932649908	1
0	4605	593.366268691553	2
0	4606	593.459418872125	1
0	4608	593.459418872125	0
0	4614	594.317656863948	1
0	4615	594.469520534818	0
0	4622	594.865605018869	1
0	4624	595.312043957815	2
0	4625	595.473278541708	1
0	4627	595.473278541708	0
0	4633	596.816371774671	1
0	4635	597.267607315483	2
0	4636	597.474398679981	1
0	4638	597.474398679981	0
0	4644	597.910460290571	1
0	4645	598.56075124482	0
0	4652	599.149925245648	1
0	4653	599.529884799491	0
0	4660	600.022635023532	1
0	4662	600.464446947721	2
0	4663	600.47002072631	1
0	4665	600.47002072631	0
0	4668	600.847784312742	1
0	4670	601.07686083011	2
0	4671	601.146892522175	1
0	4673	601.146892522175	0
0	4679	602.130129579966	1
0	4681	602.158034663965	2
0	4683	602.159552648115	3
0	4684	602.352383721282	2
0	4686	602.352383721282	1
0	4687	602.352383721282	0
0	4693	603.895061733769	1
0	4695	604.07659811951	2
0	4696	604.312174871925	1
0	4698	604.312174871925	0
0	4704	604.805940466572	1
0	4706	604.895276944782	2
0	4707	605.391803196612	1
0	4709	605.391803196612	0
0	4725	609.492126891723	1
0	4726	609.647231609392	0
0	4733	611.049977535171	1
0	4734	611.443737754007	0
0	4741	612.029289460429	1
0	4743	612.327892150824	2
0	4744	612.342206708305	1
0	4746	612.342206708305	0
0	4749	612.641881220777	1
0	4751	612.943998402412	2
0	4752	613.01907850417	1
0	4754	613.01907850417	0
0	4760	614.130377756329	1
0	4762	614.575511879256	2
0	4763	614.637452215108	1
0	4765	614.637452215108	0
0	4776	615.586914016841	1
0	4778	615.79374341221	2
0	4780	615.922880065876	3
0	4781	616.030560848461	2
0	4783	616.030560848461	1
0	4784	616.030560848461	0
0	4790	616.542440589482	1
0	4792	616.542525151409	2
0	4794	616.71877453578	3
0	4795	617.196523182838	2
0	4797	617.196523182838	1
0	4798	617.196523182838	0
0	4804	617.782128200184	1
0	4805	618.063449115086	0
0	4812	618.557272468243	1
0	4813	619.088090448084	0
0	4820	620.627524288297	1
0	4822	620.635786015078	2
0	4823	620.735062865389	1
0	4825	620.735062865389	0
0	4831	621.111246941332	1
0	4832	621.611170913475	0
0	4839	622.264692151885	1
0	4840	622.697251786416	0
0	4847	622.944746342879	1
0	4849	623.174162829391	2
0	4850	623.580036983292	1
0	4852	623.580036983292	0
0	4868	627.099366971566	1
0	4870	627.141317174045	2
0	4872	627.40266162723	3
0	4874	627.49761922732	4
0	4875	627.727180217731	3
0	4877	627.727180217731	2
0	4878	627.727180217731	1
0	4879	627.727180217731	0
0	4885	628.061316219431	1
0	4887	628.19705725988	2
0	4889	628.531156141692	3
0	4891	628.569183515462	4
0	4893	628.57113318067	5
0	4894	628.586176123027	4
0	4896	628.586176123027	3
0	4897	628.586176123027	2
0	4898	628.586176123027	1
0	4901	629.028988917127	2
0	4902	629.263047918892	1
0	4904	629.263047918892	0
0	4910	630.549467595867	1
0	4911	630.780940295411	0
0	4918	631.638557068063	1
0	4920	632.143357440106	2
0	4922	632.196323709515	3
0	4923	632.212861428191	2
0	4925	632.212861428191	1
0	4926	632.212861428191	0
0	4934	633.278935056158	1
0	4935	633.746912698547	0
0	4952	636.847272123306	1
0	4954	636.965405417554	2
0	4956	637.057977626469	3
0	4957	637.232271655405	2
0	4959	637.232271655405	1
0	4960	637.232271655405	0
0	4966	637.890322723511	1
0	4967	638.049922266467	0
0	4974	638.551239699128	1
0	4976	638.861912594412	2
0	4977	639.168577536032	1
0	4979	639.168577536032	0
0	4985	639.898360137075	1
0	4986	639.971477160358	0
0	4993	640.550889050551	1
0	4995	640.614790664384	2
0	4996	640.70136880759	1
0	4998	640.70136880759	0
0	5009	642.366675562179	1
0	5011	643.000339313028	2
0	5015	643.239729116694	3
0	5016	643.293989342752	2
0	5017	643.293989342752	1
0	5018	643.293989342752	0
0	5024	643.400407159536	1
0	5026	643.635932514167	2
0	5028	643.724403256634	3
0	5029	644.001588822513	2
0	5031	644.001588822513	1
0	5032	644.001588822513	0
0	5038	644.520431998069	1
0	5039	644.76918021752	0
0	5046	644.907928800268	1
0	5047	645.569309583177	0
0	5054	646.707395214582	1
0	5056	646.753925531752	2
0	5057	647.086865832916	1
0	5059	647.086865832916	0
0	5065	647.580512841532	1
0	5067	647.705403844265	2
0	5069	647.808938507427	3
0	5071	647.840518386381	4
0	5073	648.064709285001	5
0	5074	648.091984898623	4
0	5076	648.091984898623	3
0	5077	648.091984898623	2
0	5078	648.091984898623	1
0	5079	648.091984898623	0
0	5082	648.105543262888	1
0	5084	648.228717821013	2
0	5086	648.352581798081	3
0	5088	648.371788669018	4
0	5090	648.556838359215	5
0	5092	648.692060933846	6
0	5094	648.756098341712	7
0	5095	648.768856694488	6
0	5097	648.768856694488	5
0	5098	648.768856694488	4
0	5099	648.768856694488	3
0	5100	648.768856694488	2
0	5101	648.768856694488	1
0	5102	648.768856694488	0
0	5105	648.933986369245	1
0	5107	649.191043075748	2
0	5108	649.445728490353	1
0	5110	649.445728490353	0
0	5116	649.956850514463	1
0	5118	650.059220346991	2
0	5119	650.156548046708	1
0	5121	650.156548046708	0
0	5132	651.253973399005	1
0	5134	651.519541085801	2
0	5136	651.524921629816	3
0	5137	651.589072922621	2
0	5139	651.589072922621	1
0	5140	651.589072922621	0
0	5146	652.384111414051	1
0	5147	652.801448235352	0
0	5154	652.918690652208	1
0	5156	652.985441394231	2
0	5157	653.496933064416	1
0	5159	653.496933064416	0
0	5165	654.490566343123	1
0	5167	655.112582241209	2
0	5168	655.122134458298	1
0	5170	655.122134458298	0
0	5173	655.6476017597	1
0	5174	655.799006254163	0
0	5181	656.270604764275	1
0	5182	656.708526338671	0
0	5189	657.695780398379	1
0	5191	658.199006353288	2
0	5192	658.315919686202	1
0	5194	658.315919686202	0
0	5210	660.802529193252	1
0	5212	660.858685573599	2
0	5214	661.109115040962	3
0	5216	661.124979365343	4
0	5218	661.155996122952	5
0	5219	661.370838116182	4
0	5221	661.370838116182	3
0	5222	661.370838116182	2
0	5223	661.370838116182	1
0	5224	661.370838116182	0
0	5230	662.213983962575	1
0	5232	662.439388604402	2
0	5233	662.612703454224	1
0	5235	662.612703454224	0
0	5256	668.133855957674	1
0	5258	668.450986691689	2
0	5260	668.502189370106	3
0	5261	668.704769159256	2
0	5263	668.704769159256	1
0	5264	668.704769159256	0
0	5270	670.159401009296	1
0	5272	670.222877516621	2
0	5273	670.732495964497	1
0	5275	670.732495964497	0
0	5286	672.835696022313	1
0	5287	673.420577571304	0
0	5294	674.06541359852	1
0	5295	674.695175602518	0
0	5302	675.356252459004	1
0	5304	675.624493055196	2
0	5305	676.022087042911	1
0	5307	676.022087042911	0
0	5313	677.707535880658	1
0	5314	677.893223273173	0
0	5326	680.41123719977	1
0	5328	680.751535809249	2
0	5329	680.839809351154	1
0	5331	680.839809351154	0
0	5337	681.38869987944	1
0	5338	681.556809310669	0
0	5345	682.500602086668	1
0	5347	682.514181428911	2
0	5348	683.014431320066	1
0	5350	683.014431320066	0
0	5356	683.61514944942	1
0	5357	684.262567877905	0
0	5369	686.954909165121	1
0	5370	687.013902695928	0
0	5377	688.280749427575	1
0	5379	688.50668053079	2
0	5380	688.767125393641	1
0	5382	688.767125393641	0
0	5388	689.555692768204	1
0	5389	689.614864740059	0
0	5396	690.165753406392	1
0	5398	690.67215966891	2
0	5400	690.755091196545	3
0	5401	690.803708923867	2
0	5403	690.803708923867	1
0	5404	690.803708923867	0
0	5410	691.26364359768	1
0	5412	691.600166621323	2
0	5413	691.909454281264	1
0	5415	691.909454281264	0
0	5421	692.09107842012	1
0	5422	692.648547105932	0
0	5434	696.156268265522	1
0	5436	696.237230793203	2
0	5437	696.52919175405	1
0	5439	696.52919175405	0
0	5445	697.585432203696	1
0	5446	697.698245947465	0
0	5453	698.864996974838	1
0	5455	698.87666267379	2
0	5457	698.877052638454	3
0	5459	699.388431507192	4
0	5460	699.532250930176	3
0	5462	699.532250930176	2
0	5463	699.532250930176	1
0	5464	699.532250930176	0
0	5470	701.598107445945	1
0	5472	701.735209924608	2
0	5474	701.989202724914	3
0	5475	702.114723250576	2
0	5477	702.114723250576	1
0	5478	702.114723250576	0
0	5484	702.876914683621	1
0	5486	703.014444484493	2
0	5488	703.099848530513	3
0	5489	703.314731391288	2
0	5491	703.314731391288	1
0	5492	703.314731391288	0
0	5498	703.626863324932	1
0	5500	703.62814015797	2
0	5502	703.957796166619	3
0	5503	704.289659826123	2
0	5505	704.289659826123	1
0	5506	704.289659826123	0
0	5512	704.837799860569	1
0	5514	704.878356951194	2
0	5516	705.029148411058	3
0	5517	705.160674734217	2
0	5519	705.160674734217	1
0	5520	705.160674734217	0
0	5526	705.482208321337	1
0	5527	705.919042612026	0
0	5534	706.278135037408	1
0	5536	706.451271956779	2
0	5537	706.747567756058	1
0	5539	706.747567756058	0
0	5545	707.268228455913	1
0	5547	707.397314993088	2
0	5549	707.40696658915	3
0	5551	707.630633972021	4
0	5552	707.814268860099	3
0	5554	707.814268860099	2
0	5555	707.814268860099	1
0	5556	707.814268860099	0
0	5572	712.218638634918	1
0	5573	712.673737407911	0
0	5585	714.405001705008	1
0	5587	714.627841881362	2
0	5589	714.865845612479	3
0	5590	714.969425823041	2
0	5592	714.969425823041	1
0	5593	714.969425823041	0
0	5599	715.822206511535	1
0	5601	715.899304779312	2
0	5603	715.952541567829	3
0	5604	716.246290787188	2
0	5606	716.246290787188	1
0	5607	716.246290787188	0
0	5618	718.533044541295	1
0	5619	719.168236263623	0
0	5631	720.438913430819	1
0	5632	720.767174483781	0
0	5639	721.03514696261	1
0	5641	721.673484574715	2
0	5642	721.682513644307	1
0	5644	721.682513644307	0
0	5647	721.764437777628	1
0	5648	722.359385440172	0
0	5665	723.996605107869	1
0	5666	724.655112078651	0
0	5678	725.884703984555	1
0	5682	726.295602211119	2
0	5684	726.342769495255	3
0	5685	726.519931629827	2
0	5686	726.519931629827	1
0	5687	726.519931629827	0
0	5693	727.781182223137	1
0	5695	728.252259945762	2
0	5696	728.352279061561	1
0	5698	728.352279061561	0
0	5704	729.243226460129	1
0	5706	729.452995224194	2
0	5708	729.749188430734	3
0	5709	729.770741594639	2
0	5711	729.770741594639	1
0	5712	729.770741594639	0
0	5715	730.101246775078	1
0	5717	730.430444934623	2
0	5718	730.447613390504	1
0	5720	730.447613390504	0
0	5723	730.966551696126	1
0	5724	731.124485186369	0
0	5731	731.271653563972	1
0	5733	731.41641870833	2
0	5735	731.430526329161	3
0	5737	731.809300659728	4
0	5738	731.87418459695	3
0	5740	731.87418459695	2
0	5741	731.87418459695	1
0	5742	731.87418459695	0
0	5748	733.456506202384	1
0	5750	733.598980001826	2
0	5751	733.633890008912	1
0	5753	733.633890008912	0
0	5764	735.630363720441	1
0	5765	735.957115201237	0
0	5772	735.990726796403	1
0	5774	736.221791311362	2
0	5776	736.63732370776	3
0	5777	736.648071899792	2
0	5779	736.648071899792	1
0	5780	736.648071899792	0
0	5783	736.975168967332	1
0	5785	737.139666316076	2
0	5786	737.324943695657	1
0	5788	737.324943695657	0
0	5794	737.737352751312	1
0	5795	738.23765052154	0
0	5802	738.607251492938	1
0	5804	739.059401806987	2
0	5805	739.28281237126	1
0	5807	739.28281237126	0
0	5813	739.795842163548	1
0	5815	739.976431525142	2
0	5816	740.181776064716	1
0	5818	740.181776064716	0
0	5824	740.728708788417	1
0	5825	740.999635033151	0
0	5832	741.195856225039	1
0	5833	741.717699770273	0
0	5840	742.145992020312	1
0	5842	742.188027561082	2
0	5844	742.253315656562	3
0	5846	742.306466168454	4
0	5848	742.732773915992	5
0	5849	742.746062362267	4
0	5851	742.746062362267	3
0	5852	742.746062362267	2
0	5853	742.746062362267	1
0	5854	742.746062362267	0
0	5857	743.090951776458	1
0	5859	743.208788606648	2
0	5861	743.28246807435	3
0	5862	743.422934158132	2
0	5864	743.422934158132	1
0	5865	743.422934158132	0
0	5876	744.464239837332	1
0	5878	745.05803028411	2
0	5879	745.096594413581	1
0	5881	745.096594413581	0
0	5887	745.448861006835	1
0	5889	745.537530582209	2
0	5891	745.540024836691	3
0	5893	745.678418926593	4
0	5895	745.686944025182	5
0	5896	745.874214914186	4
0	5898	745.874214914186	3
0	5899	745.874214914186	2
0	5900	745.874214914186	1
0	5901	745.874214914186	0
0	5907	747.431914417017	1
0	5909	747.532356836049	2
0	5910	747.667388534528	1
0	5912	747.667388534528	0
0	5923	749.897417924942	1
0	5924	749.975179463534	0
0	5936	752.516445511138	1
0	5937	752.644622226486	0
0	5944	753.452770429766	1
0	5945	753.581148431292	0
0	5952	754.26903428746	1
0	5953	754.439201697784	0
0	5960	756.300618646514	1
0	5962	756.394120935074	2
0	5963	756.397833703351	1
0	5965	756.397833703351	0
0	5968	756.706767005702	1
0	5969	757.074705499216	0
0	5976	757.420868318873	1
0	5978	757.423816026219	2
0	5979	757.772182628934	1
0	5981	757.772182628934	0
0	5997	760.39599969268	1
0	5999	760.409196426067	2
0	6000	760.497441551606	1
0	6002	760.497441551606	0
0	6008	761.547092137052	1
0	6010	761.727744200895	2
0	6012	761.783080369903	3
0	6014	761.849440550979	4
0	6015	761.944373751613	3
0	6017	761.944373751613	2
0	6018	761.944373751613	1
0	6019	761.944373751613	0
0	6030	764.04205311625	1
0	6031	764.613890833735	0
0	6038	765.280342505191	1
0	6040	765.546452445175	2
0	6042	765.549297702697	3
0	6043	765.589535986496	2
0	6045	765.589535986496	1
0	6046	765.589535986496	0
0	6052	766.083744137425	1
0	6054	766.36548944426	2
0	6056	766.594531593958	3
0	6057	766.60317074762	2
0	6059	766.60317074762	1
0	6060	766.60317074762	0
0	6063	767.040758856963	1
0	6065	767.150581702386	2
0	6066	767.280042543485	1
0	6068	767.280042543485	0
0	6074	767.660625878679	1
0	6075	768.033506882502	0
0	6082	769.480582533919	1
0	6084	769.497696863637	2
0	6086	769.502467989456	3
0	6088	769.645486543294	4
0	6089	769.724760145201	3
0	6091	769.724760145201	2
0	6092	769.724760145201	1
0	6093	769.724760145201	0
0	6099	770.279871297234	1
0	6101	770.798715847147	2
0	6102	770.923788455965	1
0	6104	770.923788455965	0
0	6110	771.468408957699	1
0	6112	771.661374148155	2
0	6114	771.770939871463	3
0	6115	772.069171982803	2
0	6117	772.069171982803	1
0	6118	772.069171982803	0
0	6124	773.391632247508	1
0	6126	773.707384469458	2
0	6128	773.711143993849	3
0	6129	773.807881744174	2
0	6131	773.807881744174	1
0	6132	773.807881744174	0
0	6138	774.492005085033	1
0	6140	774.779708475292	2
0	6142	774.81134587181	3
0	6143	774.948629665064	2
0	6145	774.948629665064	1
0	6146	774.948629665064	0
0	6157	776.317807078108	1
0	6158	776.69168949002	0
0	6165	777.894903787856	1
0	6167	777.971227364093	2
0	6168	778.107801166413	1
0	6170	778.107801166413	0
0	6181	780.419157714741	1
0	6183	780.750238896107	2
0	6185	780.793807704528	3
0	6186	781.001902285536	2
0	6188	781.001902285536	1
0	6189	781.001902285536	0
0	6195	782.617680425977	1
0	6196	782.930034722313	0
0	6203	783.502734320099	1
0	6205	783.811238014838	2
0	6206	784.011513928369	1
0	6208	784.011513928369	0
0	6214	784.593911006648	1
0	6216	784.913665240795	2
0	6218	784.94307982518	3
0	6219	785.104640406793	2
0	6221	785.104640406793	1
0	6222	785.104640406793	0
0	6228	785.777713257306	1
0	6230	786.350563621769	2
0	6232	786.353158423843	3
0	6233	786.371282549731	2
0	6235	786.371282549731	1
0	6238	786.877219979039	2
0	6240	786.914361917731	3
0	6242	786.96181698489	4
0	6243	787.048154345596	3
0	6245	787.048154345596	2
0	6246	787.048154345596	1
0	6247	787.048154345596	0
0	6253	787.738357991262	1
0	6254	788.100736145649	0
0	6261	789.864264126564	1
0	6262	789.9824442911	0
0	6269	791.882377268954	1
0	6270	791.97556710275	0
0	6277	792.553372546107	1
0	6279	792.977799735364	2
0	6281	793.158482589855	3
0	6282	793.198729883413	2
0	6284	793.198729883413	1
0	6285	793.198729883413	0
0	6291	794.437192552149	1
0	6293	794.59707049781	2
0	6294	794.692391458285	1
0	6296	794.692391458285	0
0	6307	796.65398611486	1
0	6309	797.162831657235	2
0	6310	797.200813053832	1
0	6312	797.200813053832	0
0	6318	797.553758995975	1
0	6320	797.85484169808	2
0	6322	797.961189456736	3
0	6323	798.05409923085	2
0	6325	798.05409923085	1
0	6326	798.05409923085	0
0	6337	801.746664787385	1
0	6339	802.092390386624	2
0	6341	802.113330128547	3
0	6342	802.133644019374	2
0	6344	802.133644019374	1
0	6345	802.133644019374	0
0	6348	802.465365762136	1
0	6350	802.525709500719	2
0	6352	802.782466183188	3
0	6353	802.810515815239	2
0	6355	802.810515815239	1
0	6356	802.810515815239	0
0	6362	803.094932531231	1
0	6364	803.219637475177	2
0	6366	803.324110027811	3
0	6367	803.550573870998	2
0	6369	803.550573870998	1
0	6370	803.550573870998	0
0	6376	803.794745713029	1
0	6378	804.204346746585	2
0	6379	804.452690855721	1
0	6381	804.452690855721	0
0	6387	804.975590695754	1
0	6389	805.000033466465	2
0	6391	805.056536965204	3
0	6393	805.190228383284	4
0	6394	805.224610551806	3
0	6396	805.224610551806	2
0	6397	805.224610551806	1
0	6398	805.224610551806	0
0	6404	805.94705187038	1
0	6406	806.083942861203	2
0	6408	806.098048004718	3
0	6410	806.160032693568	4
0	6413	806.439726211356	3
0	6414	806.439726211356	2
0	6415	806.439726211356	1
0	6416	806.439726211356	0
0	6427	807.504676167716	1
0	6428	807.954589601658	0
0	6440	809.896051461351	1
0	6441	810.538518200197	0
0	6448	811.574469879251	1
0	6450	811.701336390769	2
0	6451	811.957406006138	1
0	6453	811.957406006138	0
0	6459	814.258347659426	1
0	6460	814.352507728632	0
0	6467	814.475224934032	1
0	6469	814.500997695657	2
0	6471	815.113998746798	3
0	6472	815.133296697305	2
0	6474	815.133296697305	1
0	6475	815.133296697305	0
0	6478	815.699314677225	1
0	6479	815.81016849317	0
0	6486	818.600242358823	1
0	6487	818.718917904012	0
0	6499	821.367096024695	1
0	6500	821.383672388371	0
0	6504	821.436593106962	1
0	6506	821.560852070197	2
0	6508	821.611405294488	3
0	6510	821.843274019798	4
0	6512	821.958715870357	5
0	6513	822.060544184236	4
0	6515	822.060544184236	3
0	6516	822.060544184236	2
0	6517	822.060544184236	1
0	6518	822.060544184236	0
0	6524	822.869271071113	1
0	6526	822.917607985813	2
0	6527	823.31224632059	1
0	6529	823.31224632059	0
0	6535	823.748241528673	1
0	6536	824.404418608728	0
0	6543	824.976073218252	1
0	6544	825.136054580033	0
0	6551	826.028290078206	1
0	6553	826.174698561947	2
0	6554	826.248148356251	1
0	6556	826.248148356251	0
0	6562	826.522408437453	1
0	6564	826.652011735097	2
0	6565	827.175822202857	1
0	6567	827.175822202857	0
0	6573	827.513548260659	1
0	6575	827.619097505324	2
0	6576	827.997629262424	1
0	6578	827.997629262424	0
0	6584	828.921507890815	1
0	6586	828.930398313799	2
0	6587	829.24336107923	1
0	6589	829.24336107923	0
0	6595	829.52801790669	1
0	6597	829.72108832535	2
0	6598	830.135930836303	1
0	6600	830.135930836303	0
0	6606	830.898922550084	1
0	6608	830.902331409258	2
0	6610	831.00419425314	3
0	6611	831.184799164417	2
0	6613	831.184799164417	1
0	6614	831.184799164417	0
0	6620	831.620638628255	1
0	6622	831.665466932659	2
0	6624	831.797249327863	3
0	6626	831.878649119554	4
0	6627	831.880351510214	3
0	6629	831.880351510214	2
0	6630	831.880351510214	1
0	6631	831.880351510214	0
0	6634	832.195490775604	1
0	6635	832.557223306079	0
0	6642	832.690845028459	1
0	6643	833.292790632005	0
0	6650	834.016899605171	1
0	6652	834.151958289463	2
0	6653	834.310625506206	1
0	6655	834.310625506206	0
0	6661	836.385158716365	1
0	6662	836.394887723961	0
0	6666	836.415819797735	1
0	6667	837.071759519826	0
0	6674	837.192347247854	1
0	6676	837.58057545372	2
0	6677	837.755004204094	1
0	6679	837.755004204094	0
0	6690	840.167115768723	1
0	6691	840.318239514223	0
0	6698	840.529441436722	1
0	6700	840.799013610428	2
0	6701	841.199263778089	1
0	6703	841.199263778089	0
0	6709	841.282603236155	1
0	6711	841.336677325301	2
0	6712	841.949687145452	1
0	6714	841.949687145452	0
0	6735	846.703624014208	1
0	6736	847.345351035681	0
0	6743	848.340523048518	1
0	6744	848.777173699939	0
0	6751	848.827681275836	1
0	6753	849.043175776608	2
0	6755	849.460359927263	3
0	6756	849.491026252108	2
0	6758	849.491026252108	1
0	6759	849.491026252108	0
0	6765	850.553478312615	1
0	6766	850.583516972221	0
0	6773	850.805929897686	1
0	6775	850.989787864478	2
0	6777	851.175484180209	3
0	6778	851.385353729983	2
0	6780	851.385353729983	1
0	6781	851.385353729983	0
0	6787	851.494111390882	1
0	6789	851.760497601192	2
0	6791	851.991369536049	3
0	6792	852.09400588368	2
0	6794	852.09400588368	1
0	6795	852.09400588368	0
0	6801	853.020419737167	1
0	6802	853.023975959366	0
0	6816	855.501862998079	1
0	6818	855.734015022596	2
0	6820	855.76750225362	3
0	6821	856.087694338609	2
0	6823	856.087694338609	1
0	6824	856.087694338609	0
0	6830	856.825645249766	1
0	6831	856.910797063319	0
0	6843	857.847051349625	1
0	6845	858.383868407158	2
0	6846	858.512102049064	1
0	6848	858.512102049064	0
0	6854	859.146712115168	1
0	6856	859.249176337859	2
0	6858	859.447731534019	3
0	6859	859.809553332462	2
0	6861	859.809553332462	1
0	6862	859.809553332462	0
0	6868	860.807676286943	1
0	6869	861.436867374394	0
0	6876	861.867013902804	1
0	6877	862.194797380445	0
0	6884	862.746266446177	1
0	6885	862.879164913827	0
0	6892	863.545171857762	1
0	6893	863.618519546343	0
0	6900	864.349151881375	1
0	6901	864.621443261562	0
0	6918	866.82197743239	1
0	6920	867.392177221299	2
0	6921	867.491795338384	1
0	6923	867.491795338384	0
0	6929	868.21200650653	1
0	6931	868.627061021541	2
0	6932	868.83966482464	1
0	6934	868.83966482464	0
0	6940	869.955573248848	1
0	6941	870.270965183518	0
0	6948	870.393893303568	1
0	6949	871.067448586947	0
0	6956	871.686053223428	1
0	6957	871.854094282247	0
0	6964	872.599679320144	1
0	6965	872.92208346468	0
0	6972	874.535495479763	1
0	6973	874.782277387951	0
0	6985	877.249812463296	1
0	6987	877.264982875886	2
0	6989	877.544836115445	3
0	6991	877.563590573985	4
0	6992	877.702909663362	3
0	6994	877.702909663362	2
0	6995	877.702909663362	1
0	6996	877.702909663362	0
0	7002	878.355208049755	1
0	7004	878.614365170967	2
0	7005	878.880657739913	1
0	7007	878.880657739913	0
0	7013	880.363265980959	1
0	7014	880.928111177574	0
0	7021	881.497319913559	1
0	7022	882.050491800793	0
0	7029	882.697322891392	1
0	7030	883.283414144742	0
0	7037	883.650751479943	1
0	7040	884.376337783486	0
0	7046	885.238312736025	1
0	7048	885.457605078938	2
0	7050	885.624022811448	3
0	7051	885.672441294383	2
0	7053	885.672441294383	1
0	7054	885.672441294383	0
0	7060	885.913177123471	1
0	7061	886.379801918451	0
0	7068	886.505397049231	1
0	7069	887.069342631152	0
0	7076	887.878105152699	1
0	7077	887.953924175761	0
0	7084	888.241121761945	1
0	7085	888.844050121759	0
0	7092	889.202637861687	1
0	7093	889.57897600288	0
0	7100	889.722042818801	1
0	7102	889.864181149816	2
0	7104	890.083871420474	3
0	7105	890.326545887084	2
0	7107	890.326545887084	1
0	7108	890.326545887084	0
0	7124	894.147474306091	1
0	7126	894.187460164701	2
0	7127	894.293915931817	1
0	7129	894.293915931817	0
0	7135	894.900327278917	1
0	7136	895.09051354475	0
0	7148	898.287192685443	1
0	7149	898.352901206973	0
0	7161	900.082303067449	1
0	7162	900.401695107259	0
0	7169	901.053444306847	1
0	7171	901.257378466173	2
0	7172	901.347439045794	1
0	7174	901.347439045794	0
0	7180	901.696320382441	1
0	7182	902.05321224544	2
0	7183	902.262544874543	1
0	7185	902.262544874543	0
0	7196	903.814691987935	1
0	7197	904.317285827787	0
0	7204	904.911154198838	1
0	7205	905.537583347333	0
0	7217	907.160071111175	1
0	7218	907.5595273473	0
0	7225	908.066055484324	1
0	7226	908.472266253313	0
0	7233	909.421717714266	1
0	7234	909.716963312406	0
0	7241	910.375206986261	1
0	7242	910.682236728324	0
0	7249	911.556310756529	1
0	7251	911.689901739407	2
0	7252	911.748504189351	1
0	7254	911.748504189351	0
0	7260	911.954143015415	1
0	7262	912.004401360583	2
0	7264	912.21802965224	3
0	7265	912.441098605283	2
0	7267	912.441098605283	1
0	7268	912.441098605283	0
0	7294	917.574057072232	1
0	7296	917.733897399753	2
0	7297	917.954449180501	1
0	7299	917.954449180501	0
0	7305	918.441991602778	1
0	7307	918.628827074267	2
0	7308	919.064377802511	1
0	7310	919.064377802511	0
0	7326	922.156320643298	1
0	7327	922.496990154477	0
0	7339	925.157482736896	1
0	7341	925.270289642249	2
0	7342	925.655758065393	1
0	7344	925.655758065393	0
0	7350	925.896112124949	1
0	7352	926.331405296764	2
0	7353	926.552126594799	1
0	7355	926.552126594799	0
0	7361	926.917885044104	1
0	7363	926.943156131117	2
0	7365	927.085009283567	3
0	7366	927.254561883662	2
0	7368	927.254561883662	1
0	7369	927.254561883662	0
0	7375	928.0450580654	1
0	7376	928.287780572617	0
0	7388	929.747281246725	1
0	7389	930.053228276257	0
0	7396	930.373776679132	1
0	7398	930.841845273747	2
0	7399	930.950833674914	1
0	7401	930.950833674914	0
0	7407	931.242652815985	1
0	7408	931.640999185836	0
0	7415	932.840720224405	1
0	7416	933.085430238009	0
0	7423	933.761308472251	1
0	7424	934.168398758656	0
0	7431	935.197268326302	1
0	7432	935.766902030949	0
0	7439	936.52522486858	1
0	7440	937.191405283658	0
0	7447	938.245152320069	1
0	7448	938.555527875946	0
0	7455	938.837522997051	1
0	7456	939.300786136504	0
0	7468	940.732230516339	1
0	7469	941.243428559116	0
0	7476	942.132605259612	1
0	7478	942.159009281091	2
0	7480	942.446525794285	3
0	7481	942.509044851746	2
0	7483	942.509044851746	1
0	7484	942.509044851746	0
0	7490	943.289232199828	1
0	7491	943.56047711458	0
0	7503	946.727282571909	1
0	7504	947.149084865996	0
0	7516	948.997806598899	1
0	7518	949.304691928691	2
0	7519	949.499091030841	1
0	7521	949.499091030841	0
0	7537	952.345239987972	1
0	7539	952.453570703618	2
0	7541	952.479444481163	3
0	7542	952.736360917638	2
0	7544	952.736360917638	1
0	7545	952.736360917638	0
0	7551	957.700195209216	1
0	7552	957.926819165505	0
0	7559	958.953053107425	1
0	7560	958.96302217387	0
0	7564	959.046009407848	1
0	7565	959.639893969735	0
0	7572	960.384487488527	1
0	7573	960.573543645382	0
0	7580	960.653361388349	1
0	7582	960.993608497548	2
0	7583	961.250949148227	1
0	7585	961.250949148227	0
0	7591	961.887274415031	1
0	7592	961.972041693741	0
0	7599	963.148029260239	1
0	7601	963.237739550338	2
0	7602	963.805939612087	1
0	7604	963.805939612087	0
0	7610	965.930926903846	1
0	7612	965.938227939051	2
0	7615	966.735800148335	1
0	7616	966.735800148335	0
0	7622	967.231628960866	1
0	7624	967.548931997956	2
0	7625	967.629140868666	1
0	7627	967.629140868666	0
0	7633	967.839641760053	1
0	7635	968.116112864394	2
0	7637	968.419024414466	3
0	7638	968.427357376752	2
0	7640	968.427357376752	1
0	7641	968.427357376752	0
0	7649	969.294085603706	1
0	7651	969.806188415629	2
0	7653	969.927941650309	3
0	7654	969.936085372413	2
0	7656	969.936085372413	1
0	7657	969.936085372413	0
0	7660	969.937762966004	1
0	7661	970.612957168278	0
0	7668	970.881189179918	1
0	7670	970.94490666351	2
0	7671	971.543204854876	1
0	7673	971.543204854876	0
0	7679	973.255510847354	1
0	7681	973.772885027552	2
0	7682	973.922730806584	1
0	7684	973.922730806584	0
0	7690	974.800032287818	1
0	7691	974.925256221673	0
0	7698	975.509185468359	1
0	7699	975.877104750611	0
0	7706	976.300373936825	1
0	7707	976.786121486588	0
0	7714	977.230680672671	1
0	7715	977.705607004311	0
0	7722	978.312885723783	1
0	7724	978.540970037235	2
0	7726	978.840524377793	3
0	7727	978.86900528516	2
0	7729	978.86900528516	1
0	7730	978.86900528516	0
0	7736	978.99627264032	1
0	7737	979.614859917452	0
0	7744	979.721853902238	1
0	7746	980.025522582462	2
0	7748	980.064816153499	3
0	7749	980.360158546032	2
0	7751	980.360158546032	1
0	7752	980.360158546032	0
0	7758	981.233348506393	1
0	7759	981.530398631319	0
0	7766	982.126633937657	1
0	7768	982.373160429955	2
0	7769	982.615859543805	1
0	7771	982.615859543805	0
0	7777	983.416134868942	1
0	7778	983.697993891209	0
0	7785	984.281446146196	1
0	7787	984.624809919617	2
0	7788	984.695084573052	1
0	7790	984.695084573052	0
0	7796	985.206806047867	1
0	7797	985.432541066987	0
0	7804	985.596250740498	1
0	7806	986.020488714327	2
0	7808	986.038518139658	3
0	7809	986.20558239229	2
0	7811	986.20558239229	1
0	7812	986.20558239229	0
0	7828	990.206939623457	1
0	7830	990.375535324647	2
0	7832	990.382257192705	3
0	7833	990.396761365019	2
0	7835	990.396761365019	1
0	7838	990.508066979578	2
0	7839	991.073633160884	1
0	7841	991.073633160884	0
0	7852	992.736071388941	1
0	7854	993.17430116464	2
0	7855	993.214374094494	1
0	7857	993.214374094494	0
0	7863	993.939878509752	1
0	7864	993.984479846842	0
0	7871	994.343570887667	1
0	7872	994.900737264707	0
0	7879	995.344332898669	1
0	7881	995.607954694629	2
0	7882	995.760473582086	1
0	7884	995.760473582086	0
0	7890	996.830161624285	1
0	7891	997.008830803932	0
0	7898	997.474987822649	1
0	7899	998.044569002585	0
0	7906	999.400623954957	1
0	7908	999.513874839871	2
0	7909	999.662339732581	1
0	7911	999.662339732581	0
1	5	0.759092164866	0.676871795865
1	16	2.0601525281	0.676871795865
1	34	3.170834442406	0.676871795865
1	43	3.847706238271	0.699547947689
1	51	4.64138140385	0.676871795865
1	61	5.824472436652	0.676871795865
1	74	6.548059476477	0.676871795865
1	82	7.520759867831	0.676871795865
1	93	8.277036990641	0.676871795865
1	103	9.268439263436	0.676871795865
1	113	10.244783765253	0.676871795865
1	122	10.932046280611	0.676871795865
1	128	12.662060903803	0.676871795865
1	141	13.488769087992	0.676871795865
1	152	14.534110078663	0.676871795865
1	155	15.210981874528	0.698578659264
1	160	16.845759291162	0.676871795865
1	165	18.43677159874	0.676871795865
1	170	19.136451720909	0.676871795865
1	175	20.180097257839	0.676871795865
1	186	21.081010486501	0.676871795865
1	200	22.019004377792	0.676871795865
1	209	22.695876173657	0.69062641225
1	218	25.215480975563	0.676871795865
1	228	26.15864700584	0.676871795865
1	241	27.003968287758	0.676871795865
1	251	27.845729164228	0.676871795865
1	261	28.593514275783	0.676871795865
1	265	29.270386071648	0.697987627637
1	270	30.039317628083	0.676871795865
1	277	30.736387166602	0.676871795865
1	280	31.413258962467	0.687880252268
1	285	32.46313768877	0.676871795865
1	292	34.259344996545	0.676871795865
1	308	35.365099218101	0.676871795865
1	321	36.041971013966	0.69795407138
1	333	36.871400767548	0.676871795865
1	346	38.133978712823	0.676871795865
1	356	39.00598069014	0.676871795865
1	366	40.100738470843	0.676871795865
1	373	41.055766279375	0.676871795865
1	378	41.769700471626	0.676871795865
1	389	43.809705312365	0.676871795865
1	397	45.857994213518	0.676871795865
1	402	46.712368140101	0.676871795865
1	409	49.950975029234	0.676871795865
1	419	53.460481671443	0.676871795865
1	428	54.911741746843	0.676871795865
1	438	56.733571506059	0.676871795865
1	447	58.693243609782	0.676871795865
1	455	59.477790058614	0.676871795865
1	465	60.81367833217	0.676871795865
1	472	62.417503728796	0.676871795865
1	481	64.128052911109	0.676871795865
1	492	64.918859384104	0.676871795865
1	501	65.904294652912	0.676871795865
1	511	66.73441948342	0.676871795865
1	518	67.474692249399	0.676871795865
1	527	68.198892505559	0.676871795865
1	538	69.09211003092	0.676871795865
1	547	70.473795015825	0.676871795865
1	557	71.413597899475	0.676871795865
1	568	72.347798050669	0.676871795865
1	575	73.948116891852	0.676871795865
1	582	74.723522283093	0.676871795865
1	592	75.601504957545	0.676871795865
1	596	76.27837675341	0.679999784371
1	605	77.800957470734	0.676871795865
1	618	78.657823630741	0.676871795865
1	630	79.691323022312	0.676871795865
1	642	82.733964604223	0.676871795865
1	653	83.64216223903	0.676871795865
1	664	84.688079757964	0.676871795865
1	675	85.747793174892	0.676871795865
1	688	86.618296603473	0.676871795865
1	706	87.545211372576	0.676871795865
1	716	88.280464889581	0.676871795865
1	723	89.236989258355	0.676871795865
1	733	90.268277908906	0.676871795865
1	744	91.377574738863	0.676871795865
1	753	92.568705593649	0.676871795865
1	761	93.370991227976	0.676871795865
1	767	94.125337324808	0.676871795865
1	776	95.526312629572	0.676871795865
1	785	97.010807984731	0.676871795865
1	793	97.820982299716	0.676871795865
1	803	98.929632038101	0.676871795865
1	814	100.332059445316	0.676871795865
1	829	102.516381915542	0.676871795865
1	839	103.193253711407	0.686368906618
1	846	104.338177216331	0.676871795865
1	851	105.445311968811	0.676871795865
1	856	106.740775911047	0.676871795865
1	863	107.622634152207	0.676871795865
1	873	109.314773736985	0.676871795865
1	880	110.321476412978	0.676871795865
1	889	111.239993473998	0.676871795865
1	897	111.916865269863	0.704258636155
1	904	112.812959781983	0.676871795865
1	911	113.855951818979	0.676871795865
1	921	115.547789450703	0.676871795865
1	928	116.269496715052	0.676871795865
1	939	117.065270847326	0.676871795865
1	951	117.912710515004	0.676871795865
1	962	118.599570549727	0.676871795865
1	966	119.276442345592	0.681598733265
1	973	120.07740144739	0.676871795865
1	983	121.029093562019	0.676871795865
1	994	122.676800194989	0.676871795865
1	1001	123.481512079824	0.676871795865
1	1008	124.656001213408	0.676871795865
1	1016	125.466092642236	0.676871795865
1	1022	126.161357032233	0.676871795865
1	1029	127.390372439219	0.676871795865
1	1037	128.413997353544	0.676871795865
1	1049	129.19015685344	0.676871795865
1	1061	129.911553827103	0.676871795865
1	1072	130.601740239801	0.676871795865
1	1083	131.349219781924	0.676871795865
1	1090	132.107053700096	0.676871795865
1	1099	133.021738444028	0.676871795865
1	1112	134.01021590151	0.676871795865
1	1126	135.612429954905	0.676871795865
1	1136	136.330586847529	0.676871795865
1	1146	137.384861381411	0.676871795865
1	1155	138.12248228117	0.676871795865
1	1163	139.164269003545	0.676871795865
1	1169	139.966137047352	0.676871795865
1	1178	141.644848979812	0.676871795865
1	1189	142.679447394639	0.676871795865
1	1196	143.356793181788	0.676871795865
1	1205	144.354022532256	0.676871795865
1	1214	146.17896685121	0.676871795865
1	1224	147.497934872483	0.676871795865
1	1233	148.197234051994	0.676871795865
1	1247	149.238322211635	0.676871795865
1	1258	152.086703128547	0.676871795865
1	1264	154.106736504919	0.676871795865
1	1273	154.812151025406	0.676871795865
1	1282	155.792857651118	0.676871795865
1	1293	156.806977555275	0.676871795865
1	1300	158.615969442692	0.676871795865
1	1309	159.467804027803	0.676871795865
1	1318	160.244295901537	0.676871795865
1	1324	160.981240122826	0.676871795865
1	1331	162.259340631887	0.676871795865
1	1337	163.444599516406	0.676871795865
1	1344	164.314126613879	0.676871795865
1	1352	165.758150233176	0.676871795865
1	1360	166.5785530443	0.676871795865
1	1366	167.721676110519	0.676871795865
1	1375	168.801357512771	0.676871795865
1	1384	170.656322192574	0.676871795865
1	1392	172.225597807089	0.676871795865
1	1398	172.913582607007	0.676871795865
1	1403	173.996538910168	0.676871795865
1	1408	175.093945935675	0.676871795865
1	1419	176.416859848851	0.676871795865
1	1431	177.428648074313	0.676871795865
1	1442	178.546527821742	0.676871795865
1	1453	179.562274692254	0.676871795865
1	1464	180.394205583619	0.676871795865
1	1471	181.763483776749	0.676871795865
1	1476	182.463803983992	0.676871795865
1	1483	183.179623140438	0.676871795865
1	1493	185.095137420927	0.676871795865
1	1500	185.996760681373	0.676871795865
1	1507	188.136559539938	0.676871795865
1	1515	189.973627175736	0.676871795865
1	1523	190.907583379591	0.676871795865
1	1533	191.794031925396	0.676871795865
1	1542	192.6129687281	0.676871795865
1	1548	194.706708932684	0.676871795865
1	1559	195.405763148242	0.676871795865
1	1569	196.403956329684	0.676871795865
1	1575	197.165967472189	0.676871795865
1	1584	198.143544953837	0.676871795865
1	1593	199.70283104763	0.676871795865
1	1603	200.588141642684	0.676871795865
1	1610	202.12561515623	0.676871795865
1	1615	203.054096162634	0.676871795865
1	1622	205.137407391826	0.676871795865
1	1636	205.842268150485	0.676871795865
1	1655	206.704626243245	0.676871795865
1	1667	207.564342274189	0.676871795865
1	1677	209.097558968149	0.676871795865
1	1683	209.774430764014	0.701060636781
1	1691	210.784076888429	0.676871795865
1	1703	211.969810120366	0.676871795865
1	1715	213.356038080493	0.676871795865
1	1724	214.154306768147	0.676871795865
1	1732	215.000987242879	0.676871795865
1	1742	215.695008258802	0.676871795865
1	1746	216.371880054667	0.678237385579
1	1755	217.204020641999	0.676871795865
1	1764	218.227201058419	0.676871795865
1	1772	219.09827841688	0.676871795865
1	1780	221.330103519625	0.676871795865
1	1788	222.162053908936	0.676871795865
1	1795	222.838925704801	0.704292634967
1	1802	224.74329764944	0.676871795865
1	1811	226.797529198863	0.676871795865
1	1819	227.474400994728	0.677295895776
1	1826	229.025396774579	0.676871795865
1	1831	229.785926179516	0.676871795865
1	1840	230.687298905805	0.676871795865
1	1849	231.734524895151	0.676871795865
1	1857	233.248204649059	0.676871795865
1	1863	233.996338755056	0.676871795865
1	1876	236.075959172465	0.676871795865
1	1897	237.185159771621	0.676871795865
1	1903	238.411421205198	0.676871795865
1	1910	239.938291660225	0.676871795865
1	1926	241.50128448641	0.676871795865
1	1938	242.231831547961	0.676871795865
1	1946	243.247269745236	0.676871795865
1	1954	245.066839836101	0.676871795865
1	1966	246.167553481064	0.676871795865
1	1978	247.179857081947	0.676871795865
1	1987	248.923501967305	0.676871795865
1	1993	250.137223384362	0.676871795865
1	2000	251.055543221064	0.676871795865
1	2008	252.201210258656	0.676871795865
1	2016	252.96597887718	0.676871795865
1	2026	254.15989655726	0.676871795865
1	2035	255.159561067037	0.676871795865
1	2045	256.057797431872	0.676871795865
1	2054	257.910326921394	0.676871795865
1	2060	259.300038494036	0.676871795865
1	2065	260.193693494888	0.676871795865
1	2072	261.645940244604	0.676871795865
1	2080	262.429141529196	0.676871795865
1	2086	264.061048273944	0.676871795865
1	2091	265.786742605957	0.676871795865
1	2096	266.754662808624	0.676871795865
1	2105	268.273226664135	0.676871795865
1	2112	269.002320188645	0.676871795865
1	2121	269.805071666672	0.676871795865
1	2128	270.887371410166	0.676871795865
1	2133	272.939837359503	0.676871795865
1	2140	274.137038468391	0.676871795865
1	2146	275.048040775033	0.676871795865
1	2155	275.882246894362	0.676871795865
1	2162	277.831294259488	0.676871795865
1	2175	278.532705275799	0.676871795865
1	2184	280.469789558975	0.676871795865
1	2191	281.898595833919	0.676871795865
1	2199	283.067077628311	0.676871795865
1	2209	283.768600703853	0.676871795865
1	2218	284.978884870021	0.676871795865
1	2230	287.203974154643	0.676871795865
1	2244	288.038526665569	0.676871795865
1	2256	290.462049239766	0.676871795865
1	2265	291.327629947739	0.676871795865
1	2273	293.944576678232	0.676871795865
1	2281	295.221509976152	0.676871795865
1	2289	296.055652894649	0.676871795865
1	2301	297.662751960514	0.676871795865
1	2313	298.791429785043	0.676871795865
1	2322	299.654965372557	0.676871795865
1	2334	300.61819509524	0.676871795865
1	2344	301.746074169489	0.676871795865
1	2358	302.654749040201	0.676871795865
1	2371	304.800029800124	0.676871795865
1	2375	305.476901595989	0.687923354864
1	2384	307.422186315386	0.676871795865
1	2391	308.225021927365	0.676871795865
1	2398	309.388654318246	0.676871795865
1	2406	310.768095880346	0.676871795865
1	2416	311.508688317184	0.676871795865
1	2425	312.259232705614	0.676871795865
1	2428	312.936104501479	0.678366800856
1	2433	313.633519581938	0.676871795865
1	2438	316.757529720049	0.676871795865
1	2443	317.652662488697	0.676871795865
1	2450	318.333516112039	0.676871795865
1	2458	319.193641485852	0.676871795865
1	2466	319.942815915007	0.676871795865
1	2474	321.795932116133	0.676871795865
1	2484	323.265133636689	0.676871795865
1	2498	324.70420812578	0.676871795865
1	2509	326.231609382417	0.676871795865
1	2521	327.545962819849	0.676871795865
1	2530	329.691560820217	0.676871795865
1	2542	330.70962118647	0.676871795865
1	2549	331.386492982335	0.680607871813
1	2559	332.161602133837	0.676871795865
1	2566	333.247898148035	0.676871795865
1	2571	334.524013117154	0.676871795865
1	2578	335.240363202487	0.676871795865
1	2588	335.929342176605	0.676871795865
1	2597	337.629641891615	0.676871795865
1	2605	338.339560904798	0.676871795865
1	2613	339.248015309739	0.676871795865
1	2623	340.507985476985	0.676871795865
1	2632	341.835467481766	0.676871795865
1	2640	342.794117950935	0.676871795865
1	2652	343.522457330353	0.676871795865
1	2662	344.266076896595	0.676871795865
1	2670	345.994202460299	0.676871795865
1	2675	346.671074256164	0.689683313489
1	2683	347.493235677066	0.676871795865
1	2691	349.113709064291	0.676871795865
1	2699	349.800234644346	0.676871795865
1	2705	350.643404605306	0.676871795865
1	2714	351.346533444937	0.676871795865
1	2721	352.586803138279	0.676871795865
1	2730	353.47290812647	0.676871795865
1	2741	354.354814397578	0.676871795865
1	2752	355.045070209146	0.676871795865
1	2761	355.767365440663	0.676871795865
1	2777	356.507211446028	0.676871795865
1	2789	357.699740159744	0.676871795865
1	2799	359.273937775201	0.676871795865
1	2812	360.177180734298	0.676871795865
1	2820	361.167145506334	0.676871795865
1	2827	361.945892931232	0.676871795865
1	2837	365.110236596475	0.676871795865
1	2846	366.305704349254	0.676871795865
1	2854	367.792837695503	0.676871795865
1	2868	368.858584909643	0.676871795865
1	2879	370.259308150172	0.676871795865
1	2889	373.111064129773	0.676871795865
1	2902	374.022393900194	0.676871795865
1	2912	375.908561519087	0.676871795865
1	2922	379.027383421156	0.676871795865
1	2929	379.71643898689	0.676871795865
1	2940	380.514118045449	0.676871795865
1	2948	381.805615608967	0.676871795865
1	2953	383.274907788976	0.676871795865
1	2958	384.205268862274	0.676871795865
1	2969	385.713937518247	0.676871795865
1	2977	386.935752614436	0.676871795865
1	2982	388.209749099073	0.676871795865
1	2989	389.614661472584	0.676871795865
1	3001	390.818822726518	0.676871795865
1	3011	391.807653965195	0.676871795865
1	3019	392.639110885429	0.676871795865
1	3031	394.023023136277	0.676871795865
1	3038	394.699894932142	0.694256608073
1	3044	395.437698282651	0.676871795865
1	3051	396.373473156212	0.676871795865
1	3061	397.073256668839	0.676871795865
1	3072	398.74974288052	0.676871795865
1	3079	399.498815268998	0.676871795865
1	3086	400.494859565089	0.676871795865
1	3094	401.432012272357	0.676871795865
1	3104	402.133093940809	0.676871795865
1	3111	403.003878941205	0.676871795865
1	3118	403.721279103544	0.676871795865
1	3127	404.851478487873	0.676871795865
1	3137	405.544900546387	0.676871795865
1	3144	406.747381388943	0.676871795865
1	3151	407.56930321361	0.676871795865
1	3157	408.347312346276	0.676871795865
1	3162	409.423850827614	0.676871795865
1	3169	410.277613615128	0.676871795865
1	3175	411.315493858835	0.676871795865
1	3182	412.553532787007	0.676871795865
1	3194	413.372119415565	0.676871795865
1	3204	414.663897639187	0.676871795865
1	3212	416.550404754544	0.676871795865
1	3218	417.741547138511	0.676871795865
1	3227	418.545455527183	0.676871795865
1	3240	419.778836670865	0.676871795865
1	3250	421.312209697485	0.676871795865
1	3256	423.185761342406	0.676871795865
1	3263	423.863750868468	0.676871795865
1	3273	426.36972584217	0.676871795865
1	3284	427.720367591193	0.676871795865
1	3291	429.538793892982	0.676871795865
1	3296	430.292340504095	0.676871795865
1	3303	431.01131961643	0.676871795865
1	3315	431.733180282075	0.676871795865
1	3322	432.41005207794	0.693251175795
1	3332	433.604052302973	0.676871795865
1	3341	434.642291645619	0.676871795865
1	3349	435.416371324157	0.676871795865
1	3363	436.854812483119	0.676871795865
1	3372	437.962169735737	0.676871795865
1	3383	438.67881352156	0.676871795865
1	3395	439.527241403131	0.676871795865
1	3402	440.322043374214	0.676871795865
1	3413	441.461825901513	0.676871795865
1	3424	442.138697697378	0.678283002767
1	3432	443.286478044337	0.676871795865
[...]
8	4707	605.391803196612	0.58586273004
8	4709	605.391803196612	0.49652625183
8	4726	609.647231609392	0.155104717669
8	4734	611.443737754007	0.393760218836
8	4744	612.342206708305	0.312917247876
8	4746	612.342206708305	0.014314557481
8	4752	613.01907850417	0.377197283393
8	4754	613.01907850417	0.075080101758
8	4763	614.637452215108	0.507074458779
8	4765	614.637452215108	0.061940335852
8	4781	616.030560848461	0.44364683162
8	4783	616.030560848461	0.236817436251
8	4784	616.030560848461	0.107680782585
8	4795	617.196523182838	0.654082593356
8	4797	617.196523182838	0.653998031429
8	4798	617.196523182838	0.477748647058
8	4805	618.063449115086	0.281320914902
8	4813	619.088090448084	0.530817979841
8	4823	620.735062865389	0.107538577092
8	4825	620.735062865389	0.099276850311
8	4832	621.611170913475	0.499923972143
8	4840	622.697251786416	0.432559634531
8	4850	623.580036983292	0.635290640413
8	4852	623.580036983292	0.405874153901
8	4875	627.727180217731	0.627813246165
8	4877	627.727180217731	0.585863043686
8	4878	627.727180217731	0.324518590501
8	4879	627.727180217731	0.229560990411
8	4894	628.586176123027	0.524859903596
8	4896	628.586176123027	0.389118863147
8	4897	628.586176123027	0.055019981335
8	4898	628.586176123027	0.016992607565
8	4902	629.263047918892	0.691914738222
8	4904	629.263047918892	0.234059001765
8	4911	630.780940295411	0.231472699544
8	4923	632.212861428191	0.574304360128
8	4925	632.212861428191	0.069503988085
8	4926	632.212861428191	0.016537718676
8	4935	633.746912698547	0.467977642389
8	4957	637.232271655405	0.384999532099
8	4959	637.232271655405	0.266866237851
8	4960	637.232271655405	0.174294028936
8	4967	638.049922266467	0.159599542956
8	4977	639.168577536032	0.617337836904
8	4979	639.168577536032	0.30666494162
8	4986	639.971477160358	0.073117023283
8	4996	640.70136880759	0.150479757039
8	4998	640.70136880759	0.086578143206
8	5016	643.293989342752	0.927313780573
8	5017	643.293989342752	0.293650029724
8	5018	643.293989342752	0.054260226058
8	5029	644.001588822513	0.601181662977
8	5031	644.001588822513	0.365656308346
8	5032	644.001588822513	0.277185565879
8	5039	644.76918021752	0.248748219451
8	5047	645.569309583177	0.661380782909
8	5057	647.086865832916	0.379470618334
8	5059	647.086865832916	0.332940301164
8	5074	648.091984898623	0.511472057091
8	5076	648.091984898623	0.386581054358
8	5077	648.091984898623	0.283046391196
8	5078	648.091984898623	0.251466512242
8	5079	648.091984898623	0.027275613622
8	5095	648.768856694488	0.6633134316
8	5097	648.768856694488	0.540138873475
8	5098	648.768856694488	0.416274896407
8	5099	648.768856694488	0.39706802547
8	5100	648.768856694488	0.212018335273
8	5101	648.768856694488	0.076795760642
8	5102	648.768856694488	0.012758352776
8	5108	649.445728490353	0.511742121108
8	5110	649.445728490353	0.254685414605
8	5119	650.156548046708	0.199697532245
8	5121	650.156548046708	0.097327699717
8	5137	651.589072922621	0.335099523616
8	5139	651.589072922621	0.06953183682
8	5140	651.589072922621	0.064151292805
8	5147	652.801448235352	0.417336821301
8	5157	653.496933064416	0.578242412208
8	5159	653.496933064416	0.511491670185
8	5168	655.122134458298	0.631568115175
8	5170	655.122134458298	0.009552217089
8	5174	655.799006254163	0.151404494463
8	5182	656.708526338671	0.437921574396
8	5192	658.315919686202	0.620139287823
8	5194	658.315919686202	0.116913332914
8	5219	661.370838116182	0.56830892293
8	5221	661.370838116182	0.512152542583
8	5222	661.370838116182	0.26172307522
8	5223	661.370838116182	0.245858750839
8	5224	661.370838116182	0.21484199323
8	5233	662.612703454224	0.398719491649
8	5235	662.612703454224	0.173314849822
8	5261	668.704769159256	0.570913201582
8	5263	668.704769159256	0.253782467567
8	5264	668.704769159256	0.20257978915
8	5273	670.732495964497	0.573094955201
8	5275	670.732495964497	0.509618447876
8	5287	673.420577571304	0.584881548991
8	5295	674.695175602518	0.629762003998
8	5305	676.022087042911	0.665834583907
8	5307	676.022087042911	0.397593987715
8	5314	677.893223273173	0.185687392515
8	5329	680.839809351154	0.428572151384
8	5331	680.839809351154	0.088273541905
8	5338	681.556809310669	0.168109431229
8	5348	683.014431320066	0.513829233398
8	5350	683.014431320066	0.500249891155
8	5357	684.262567877905	0.647418428485
8	5370	687.013902695928	0.058993530807
8	5380	688.767125393641	0.486375966066
8	5382	688.767125393641	0.260444862851
8	5389	689.614864740059	0.059171971855
8	5401	690.803708923867	0.637955517475
8	5403	690.803708923867	0.131549254957
8	5404	690.803708923867	0.048617727322
8	5413	691.909454281264	0.645810683584
8	5415	691.909454281264	0.309287659941
8	5422	692.648547105932	0.557468685812
8	5437	696.52919175405	0.372923488528
8	5439	696.52919175405	0.291960960847
8	5446	697.698245947465	0.112813743769
8	5460	699.532250930176	0.667253955338
8	5462	699.532250930176	0.655588256386
8	5463	699.532250930176	0.655198291722
8	5464	699.532250930176	0.143819422984
8	5475	702.114723250576	0.516615804631
8	5477	702.114723250576	0.379513325968
8	5478	702.114723250576	0.125520525662
8	5489	703.314731391288	0.437816707667
8	5491	703.314731391288	0.300286906795
8	5492	703.314731391288	0.214882860775
8	5503	704.289659826123	0.662796501191
8	5505	704.289659826123	0.661519668153
8	5506	704.289659826123	0.331863659504
8	5517	705.160674734217	0.322874873648
8	5519	705.160674734217	0.282317783023
8	5520	705.160674734217	0.131526323159
8	5527	705.919042612026	0.436834290689
8	5537	706.747567756058	0.46943271865
8	5539	706.747567756058	0.296295799279
8	5552	707.814268860099	0.546040404186
8	5554	707.814268860099	0.416953867011
8	5555	707.814268860099	0.407302270949
8	5556	707.814268860099	0.183634888078
8	5573	712.673737407911	0.455098772993
8	5590	714.969425823041	0.564424118033
8	5592	714.969425823041	0.341583941679
8	5593	714.969425823041	0.103580210562
8	5604	716.246290787188	0.424084275653
8	5606	716.246290787188	0.346986007876
8	5607	716.246290787188	0.293749219359
8	5619	719.168236263623	0.635191722328
8	5632	720.767174483781	0.328261052962
8	5642	721.682513644307	0.647366681697
8	5644	721.682513644307	0.009029069592
8	5648	722.359385440172	0.594947662544
8	5666	724.655112078651	0.658506970782
8	5685	726.519931629827	0.635227645272
8	5686	726.519931629827	0.224329418708
8	5687	726.519931629827	0.177162134572
8	5696	728.352279061561	0.571096838424
8	5698	728.352279061561	0.100019115799
8	5709	729.770741594639	0.52751513451
8	5711	729.770741594639	0.317746370445
8	5712	729.770741594639	0.021553163905
8	5718	730.447613390504	0.346366615426
8	5720	730.447613390504	0.017168455881
8	5724	731.124485186369	0.157933490243
8	5738	731.87418459695	0.602531032978
8	5740	731.87418459695	0.45776588862
8	5741	731.87418459695	0.443658267789
8	5742	731.87418459695	0.064883937222
8	5751	733.633890008912	0.177383806528
8	5753	733.633890008912	0.034910007086
8	5765	735.957115201237	0.326751480796
8	5777	736.648071899792	0.657345103389
8	5779	736.648071899792	0.42628058843
8	5780	736.648071899792	0.010748192032
8	5786	737.324943695657	0.349774728325
8	5788	737.324943695657	0.185277379581
8	5795	738.23765052154	0.500297770228
8	5805	739.28281237126	0.675560878322
8	5807	739.28281237126	0.223410564273
8	5816	740.181776064716	0.385933901168
8	5818	740.181776064716	0.205344539574
8	5825	740.999635033151	0.270926244734
8	5833	741.717699770273	0.521843545234
8	5849	742.746062362267	0.600070341955
8	5851	742.746062362267	0.558034801185
8	5852	742.746062362267	0.492746705705
8	5853	742.746062362267	0.439596193813
8	5854	742.746062362267	0.013288446275
8	5862	743.422934158132	0.331982381674
8	5864	743.422934158132	0.214145551484
8	5865	743.422934158132	0.140466083782
8	5879	745.096594413581	0.632354576249
8	5881	745.096594413581	0.038564129471
8	5896	745.874214914186	0.425353907351
8	5898	745.874214914186	0.336684331977
8	5899	745.874214914186	0.334190077495
8	5900	745.874214914186	0.195795987593
8	5901	745.874214914186	0.187270889004
8	5910	747.667388534528	0.235474117511
8	5912	747.667388534528	0.135031698479
8	5924	749.975179463534	0.077761538592
8	5937	752.644622226486	0.128176715348
8	5945	753.581148431292	0.128378001526
8	5953	754.439201697784	0.170167410324
8	5963	756.397833703351	0.097215056837
8	5965	756.397833703351	0.003712768277
8	5969	757.074705499216	0.367938493514
8	5979	757.772182628934	0.351314310061
8	5981	757.772182628934	0.348366602715
8	6000	760.497441551606	0.101441858926
8	6002	760.497441551606	0.088245125539
8	6015	761.944373751613	0.397281614561
8	6017	761.944373751613	0.216629550718
8	6018	761.944373751613	0.16129338171
8	6019	761.944373751613	0.094933200634
8	6031	764.613890833735	0.571837717485
8	6043	765.589535986496	0.309193481305
8	6045	765.589535986496	0.043083541321
8	6046	765.589535986496	0.040238283799
8	6057	766.60317074762	0.519426610195
8	6059	766.60317074762	0.23768130336
8	6060	766.60317074762	0.008639153662
8	6066	767.280042543485	0.239283686522
8	6068	767.280042543485	0.129460841099
8	6075	768.033506882502	0.372881003823
8	6089	769.724760145201	0.244177611282
8	6091	769.724760145201	0.227063281564
8	6092	769.724760145201	0.222292155745
8	6093	769.724760145201	0.079273601907
8	6102	770.923788455965	0.643917158731
8	6104	770.923788455965	0.125072608818
8	6115	772.069171982803	0.600763025104
8	6117	772.069171982803	0.407797834648
8	6118	772.069171982803	0.29823211134
8	6129	773.807881744174	0.416249496666
8	6131	773.807881744174	0.100497274716
8	6132	773.807881744174	0.096737750325
8	6143	774.948629665064	0.456624580031
8	6145	774.948629665064	0.168921189772
8	6146	774.948629665064	0.137283793254
8	6158	776.69168949002	0.373882411912
8	6168	778.107801166413	0.212897378557
8	6170	778.107801166413	0.13657380232
8	6186	781.001902285536	0.582744570795
8	6188	781.001902285536	0.251663389429
8	6189	781.001902285536	0.208094581008
8	6196	782.930034722313	0.312354296336
8	6206	784.011513928369	0.50877960827
8	6208	784.011513928369	0.200275913531
8	6219	785.104640406793	0.510729400145
8	6221	785.104640406793	0.190975165998
8	6222	785.104640406793	0.161560581613
8	6233	786.371282549731	0.593569292425
8	6235	786.371282549731	0.020718927962
8	6243	787.048154345596	0.694995921753
8	6245	787.048154345596	0.170934366557
8	6246	787.048154345596	0.133792427865
8	6247	787.048154345596	0.086337360706
8	6254	788.100736145649	0.362378154387
8	6262	789.9824442911	0.118180164536
8	6270	791.97556710275	0.093189833796
8	6282	793.198729883413	0.645357337306
8	6284	793.198729883413	0.220930148049
8	6285	793.198729883413	0.040247293558
8	6294	794.692391458285	0.255198906136
8	6296	794.692391458285	0.095320960475
8	6310	797.200813053832	0.546826938972
8	6312	797.200813053832	0.037981396597
8	6323	798.05409923085	0.500340234875
8	6325	798.05409923085	0.19925753277
8	6326	798.05409923085	0.092909774114
8	6342	802.133644019374	0.386979231989
8	6344	802.133644019374	0.04125363275
8	6345	802.133644019374	0.020313890827
8	6353	802.810515815239	0.345150053103
8	6355	802.810515815239	0.28480631452
8	6356	802.810515815239	0.028049632051
8	6367	803.550573870998	0.455641339767
8	6369	803.550573870998	0.330936395821
8	6370	803.550573870998	0.226463843187
8	6379	804.452690855721	0.657945142692
8	6381	804.452690855721	0.248344109136
8	6394	805.224610551806	0.249019856052
8	6396	805.224610551806	0.224577085341
8	6397	805.224610551806	0.168073586602
8	6398	805.224610551806	0.034382168522
8	6413	806.439726211356	0.492674340976
8	6414	806.439726211356	0.355783350153
8	6415	806.439726211356	0.341678206638
8	6416	806.439726211356	0.279693517788
8	6428	807.954589601658	0.449913433942
8	6441	810.538518200197	0.642466738846
8	6451	811.957406006138	0.382936126887
8	6453	811.957406006138	0.256069615369
8	6460	814.352507728632	0.094160069206
8	6472	815.133296697305	0.658071763273
8	6474	815.133296697305	0.632299001648
8	6475	815.133296697305	0.019297950507
8	6479	815.81016849317	0.110853815945
8	6487	818.718917904012	0.118675545189
8	6500	821.383672388371	0.016576363676
8	6513	822.060544184236	0.623951077274
8	6515	822.060544184236	0.499692114039
8	6516	822.060544184236	0.449138889748
8	6517	822.060544184236	0.217270164438
8	6518	822.060544184236	0.101828313879
8	6527	823.31224632059	0.442975249477
8	6529	823.31224632059	0.394638334777
8	6536	824.404418608728	0.656177080055
8	6544	825.136054580033	0.159981361781
8	6554	826.248148356251	0.219858278045
8	6556	826.248148356251	0.073449794304
8	6565	827.175822202857	0.653413765404
8	6567	827.175822202857	0.52381046776
8	6576	827.997629262424	0.484081001765
8	6578	827.997629262424	0.3785317571
8	6587	829.24336107923	0.321853188415
8	6589	829.24336107923	0.312962765431
8	6598	830.135930836303	0.607912929613
8	6600	830.135930836303	0.414842510953
8	6611	831.184799164417	0.285876614333
8	6613	831.184799164417	0.282467755159
8	6614	831.184799164417	0.180604911277
8	6627	831.880351510214	0.259712881959
8	6629	831.880351510214	0.214884577555
8	6630	831.880351510214	0.083102182351
8	6631	831.880351510214	0.00170239066
8	6635	832.557223306079	0.361732530475
8	6643	833.292790632005	0.601945603546
8	6653	834.310625506206	0.293725901035
8	6655	834.310625506206	0.158667216743
8	6662	836.394887723961	0.009729007596
8	6667	837.071759519826	0.655939722091
8	6677	837.755004204094	0.56265695624
8	6679	837.755004204094	0.174428750374
8	6691	840.318239514223	0.1511237455
8	6701	841.199263778089	0.669822341367
8	6703	841.199263778089	0.400250167661
8	6712	841.949687145452	0.667083909297
8	6714	841.949687145452	0.613009820151
8	6736	847.345351035681	0.641727021473
8	6744	848.777173699939	0.436650651421
8	6756	849.491026252108	0.663344976272
8	6758	849.491026252108	0.4478504755
8	6759	849.491026252108	0.030666324845
8	6766	850.583516972221	0.030038659606
8	6778	851.385353729983	0.579423832297
8	6780	851.385353729983	0.395565865505
8	6781	851.385353729983	0.209869549774
8	6792	852.09400588368	0.599894492798
8	6794	852.09400588368	0.333508282488
8	6795	852.09400588368	0.102636347631
8	6802	853.023975959366	0.003556222199
8	6821	856.087694338609	0.58583134053
8	6823	856.087694338609	0.353679316013
8	6824	856.087694338609	0.320192084989
8	6831	856.910797063319	0.085151813553
8	6846	858.512102049064	0.665050699439
8	6848	858.512102049064	0.128233641906
8	6859	859.809553332462	0.662841217294
8	6861	859.809553332462	0.560376994603
8	6862	859.809553332462	0.361821798443
8	6869	861.436867374394	0.629191087451
8	6877	862.194797380445	0.327783477641
8	6885	862.879164913827	0.13289846765
8	6893	863.618519546343	0.073347688581
8	6901	864.621443261562	0.272291380187
8	6921	867.491795338384	0.669817905994
8	6923	867.491795338384	0.099618117085
8	6932	868.83966482464	0.62765831811
8	6934	868.83966482464	0.212603803099
8	6941	870.270965183518	0.31539193467
8	6949	871.067448586947	0.673555283379
8	6957	871.854094282247	0.168041058819
8	6965	872.92208346468	0.322404144536
8	6973	874.782277387951	0.246781908188
8	6992	877.702909663362	0.453097200066
8	6994	877.702909663362	0.437926787476
8	6995	877.702909663362	0.158073547917
8	6996	877.702909663362	0.139319089377
8	7005	878.880657739913	0.525449690158
8	7007	878.880657739913	0.266292568946
8	7014	880.928111177574	0.564845196615
8	7022	882.050491800793	0.553171887234
8	7030	883.283414144742	0.58609125335
8	7040	884.376337783486	0.725586303543
8	7051	885.672441294383	0.434128558358
8	7053	885.672441294383	0.214836215445
8	7054	885.672441294383	0.048418482935
8	7061	886.379801918451	0.46662479498
8	7069	887.069342631152	0.563945581921
8	7077	887.953924175761	0.075819023062
8	7085	888.844050121759	0.602928359814
8	7093	889.57897600288	0.376338141193
8	7105	890.326545887084	0.604503068283
8	7107	890.326545887084	0.462364737268
8	7108	890.326545887084	0.24267446661
8	7127	894.293915931817	0.146441625726
8	7129	894.293915931817	0.106455767116
8	7136	895.09051354475	0.190186265833
8	7149	898.352901206973	0.06570852153
8	7162	900.401695107259	0.31939203981
8	7172	901.347439045794	0.293994738947
8	7174	901.347439045794	0.090060579621
8	7183	902.262544874543	0.566224492102
8	7185	902.262544874543	0.209332629103
8	7197	904.317285827787	0.502593839852
8	7205	905.537583347333	0.626429148495
8	7218	907.5595273473	0.399456236125
8	7226	908.472266253313	0.406210768989
8	7234	909.716963312406	0.29524559814
8	7242	910.682236728324	0.307029742063
8	7252	911.748504189351	0.192193432822
8	7254	911.748504189351	0.058602449944
8	7265	912.441098605283	0.486955589868
8	7267	912.441098605283	0.4366972447
8	7268	912.441098605283	0.223068953043
8	7297	917.954449180501	0.380392108269
8	7299	917.954449180501	0.220551780748
8	7308	919.064377802511	0.622386199733
8	7310	919.064377802511	0.435550728244
8	7327	922.496990154477	0.340669511179
8	7342	925.655758065393	0.498275328497
8	7344	925.655758065393	0.385468423144
8	7353	926.552126594799	0.65601446985
8	7355	926.552126594799	0.220721298035
8	7366	927.254561883662	0.336676839558
8	7368	927.254561883662	0.311405752545
8	7369	927.254561883662	0.169552600095
8	7376	928.287780572617	0.242722507217
8	7389	930.053228276257	0.305947029532
8	7399	930.950833674914	0.577056995782
8	7401	930.950833674914	0.108988401167
8	7408	931.640999185836	0.398346369851
8	7416	933.085430238009	0.244710013604
8	7424	934.168398758656	0.407090286405
8	7432	935.766902030949	0.569633704647
8	7440	937.191405283658	0.666180415078
8	7448	938.555527875946	0.310375555877
8	7456	939.300786136504	0.463263139453
8	7469	941.243428559116	0.511198042777
8	7481	942.509044851746	0.376439592134
8	7483	942.509044851746	0.350035570655
8	7484	942.509044851746	0.062519057461
8	7491	943.56047711458	0.271244914752
8	7504	947.149084865996	0.421802294087
8	7519	949.499091030841	0.501284431942
8	7521	949.499091030841	0.19439910215
8	7542	952.736360917638	0.391120929666
8	7544	952.736360917638	0.28279021402
8	7545	952.736360917638	0.256916436475
8	7552	957.926819165505	0.226623956289
8	7560	958.96302217387	0.009969066445
8	7565	959.639893969735	0.593884561887
8	7573	960.573543645382	0.189056156855
8	7583	961.250949148227	0.597587759878
8	7585	961.250949148227	0.257340650679
8	7592	961.972041693741	0.08476727871
8	7602	963.805939612087	0.657910351848
8	7604	963.805939612087	0.568200061749
8	7615	966.735800148335	0.804873244489
8	7616	966.735800148335	0.797572209284
8	7625	967.629140868666	0.3975119078
8	7627	967.629140868666	0.08020887071
8	7638	968.427357376752	0.587715616699
8	7640	968.427357376752	0.311244512358
8	7641	968.427357376752	0.008332962286
8	7654	969.936085372413	0.641999768707
8	7656	969.936085372413	0.129896956784
8	7657	969.936085372413	0.008143722104
8	7661	970.612957168278	0.675194202274
8	7671	971.543204854876	0.662015674958
8	7673	971.543204854876	0.598298191366
8	7682	973.922730806584	0.66721995923
8	7684	973.922730806584	0.149845779032
8	7691	974.925256221673	0.125223933855
8	7699	975.877104750611	0.367919282252
8	7707	976.786121486588	0.485747549763
8	7715	977.705607004311	0.47492633164
8	7727	978.86900528516	0.556119561377
8	7729	978.86900528516	0.328035247925
8	7730	978.86900528516	0.028480907367
8	7737	979.614859917452	0.618587277132
8	7749	980.360158546032	0.638304643794
8	7751	980.360158546032	0.33463596357
8	7752	980.360158546032	0.295342392533
8	7759	981.530398631319	0.297050124926
8	7769	982.615859543805	0.489225606148
8	7771	982.615859543805	0.24269911385
8	7778	983.697993891209	0.281859022267
8	7788	984.695084573052	0.413638426856
8	7790	984.695084573052	0.070274653435
8	7797	985.432541066987	0.22573501912
8	7809	986.20558239229	0.609331651792
8	7811	986.20558239229	0.185093677963
8	7812	986.20558239229	0.167064252632
8	7833	990.396761365019	0.189821741562
8	7835	990.396761365019	0.021226040372
8	7839	991.073633160884	0.691375968179
8	7841	991.073633160884	0.565566181306
8	7855	993.214374094494	0.478302705553
8	7857	993.214374094494	0.040072929854
8	7864	993.984479846842	0.04460133709
8	7872	994.900737264707	0.55716637704
8	7882	995.760473582086	0.416140683417
8	7884	995.760473582086	0.152518887457
8	7891	997.008830803932	0.178669179647
8	7899	998.044569002585	0.569581179936
8	7909	999.662339732581	0.261715777624
8	7911	999.662339732581	0.14846489271

