version 2
run General-272-20240201-11:04:25-40057
attr configname General
attr datetime 20240201-11:04:25
attr experiment General
attr inifile main.ini
attr iterationvars "$0=1.2, $1=1.7, $2=50"
attr iterationvarsf 1.2,1.7,50-
attr measurement "$0=1.2, $1=1.7, $2=50"
attr network Rete
attr processid 40057
attr repetition 12
attr replication #12
attr resultdir results
attr runnumber 272
attr seedset 272
param Rete.lambda 1.2
param Rete.a 0.3s
param Rete.b 1.7s
param Rete.c 0.1s
param Rete.d 0.3s
param Rete.mu 3.0
param Rete.source2.interArrivalTime exponential(1s/lambda)
param Rete.source2.jobServiceTime exponential(1s/mu)
param Rete.source2.deadline uniform(a,b)
param Rete.server2.j 50
param Rete.server2.V uniform(c,d)

vector 0 Rete.passiveQueue queueLength:vector ETV
attr interpolationmode sample-hold
attr title "queue length, vector"
vector 1 Rete.sink lifeTime:vector ETV
attr interpolationmode none
attr title "lifetime of arrived jobs, vector"
attr unit s
vector 2 Rete.sink totalQueueingTime:vector ETV
attr interpolationmode none
attr title "the total time spent in queues by arrived jobs, vector"
attr unit s
vector 3 Rete.sink queuesVisited:vector ETV
attr interpolationmode none
attr title "the total number of queues visited by arrived jobs, vector"
vector 4 Rete.sink totalServiceTime:vector ETV
attr interpolationmode none
attr title "the total time spent  by arrived jobs, vector"
attr unit s
vector 5 Rete.sink totalDelayTime:vector ETV
attr interpolationmode none
attr title "the total time spent in delay nodes by arrived jobs, vector"
attr unit s
vector 6 Rete.sink delaysVisited:vector ETV
attr interpolationmode none
attr title "the total number of delays visited by arrived jobs, vector"
vector 7 Rete.sink generation:vector ETV
attr interpolationmode none
attr title "the generation of the arrived jobs, vector"
vector 8 Rete.passiveQueue queueingTime:vector ETV
attr interpolationmode none
attr title "queueing time at dequeue, vector"
attr unit s
0	0	0	0
0	10	2.796057956409	1
0	12	3.100472276588	2
0	13	3.255827609449	1
0	15	3.255827609449	0
0	18	3.340399755417	1
0	20	3.862185252368	2
0	22	3.878802712408	3
0	23	3.958635339553	2
0	25	3.958635339553	1
0	28	4.037754709715	2
0	30	4.293643161682	3
0	32	4.503255760964	4
0	33	4.661443069657	3
0	35	4.661443069657	2
0	36	4.661443069657	1
0	37	4.661443069657	0
0	45	6.424803959911	1
0	46	6.850404208849	0
0	63	11.648657876779	1
0	65	11.79653476617	2
0	66	12.168333279792	1
0	68	12.168333279792	0
0	74	13.797071533288	1
0	75	14.133260658234	0
0	82	14.914160804188	1
0	83	14.918841039618	0
0	97	18.678064326545	1
0	98	18.853585703005	0
0	102	19.286777036758	1
0	104	19.387144454126	2
0	106	19.517019726357	3
0	107	19.556393433109	2
0	109	19.556393433109	1
0	112	20.133001743363	2
0	113	20.259201163213	1
0	115	20.259201163213	0
0	118	20.781030525389	1
0	119	20.962008893317	0
0	133	24.071757559144	1
0	134	24.488103327992	0
0	146	26.753491527183	1
0	148	26.769839616059	2
0	149	27.305000558417	1
0	151	27.305000558417	0
0	172	31.142201451886	1
0	173	31.460307400648	0
0	185	33.926464148578	1
0	187	33.938759038766	2
0	188	34.070751646209	1
0	191	34.773559376313	0
0	198	35.548978203431	1
0	200	35.780123862996	2
0	202	35.798929905768	3
0	203	35.84446221968	2
0	205	35.84446221968	1
0	207	36.547269949784	0
0	214	39.188023355996	1
0	215	39.456223365414	0
0	222	41.037680773332	1
0	224	41.081830644819	2
0	225	41.085059090014	1
0	228	41.787866820118	0
0	235	44.196274852666	1
0	237	44.275495387786	2
0	239	44.611842044103	3
0	241	44.812640025133	4
0	242	44.834203829057	3
0	244	44.834203829057	2
0	245	44.834203829057	1
0	246	44.834203829057	0
0	249	45.13287464646	1
0	251	45.396526122585	2
0	252	45.537011559161	1
0	254	45.537011559161	0
0	257	45.565609293048	1
0	258	46.239819289265	0
0	265	46.954717197737	1
0	266	47.13712699695	0
0	270	47.154069707555	1
0	271	47.839934727054	0
0	278	48.382064742341	1
0	279	48.953880140583	0
0	286	50.520094890897	1
0	288	50.524387955991	2
0	290	50.794614684729	3
0	292	50.809061096448	4
0	294	51.104195973236	5
0	295	51.212657570924	4
0	297	51.212657570924	3
0	298	51.212657570924	2
0	299	51.212657570924	1
0	300	51.212657570924	0
0	303	51.344260621404	1
0	305	51.833999206213	2
0	306	51.915465301028	1
0	308	51.915465301028	0
0	311	52.373250839508	1
0	312	52.618273031132	0
0	319	53.02647733452	1
0	321	53.108173917747	2
0	322	53.638298610481	1
0	324	53.638298610481	0
0	335	55.004425383396	1
0	336	55.437593911803	0
0	348	56.739646558707	1
0	350	56.823983602966	2
0	351	57.176172538163	1
0	353	57.176172538163	0
0	364	58.539481713927	1
0	366	58.590442592901	2
0	368	58.781248688935	3
0	371	59.285662765992	2
0	372	59.285662765992	1
0	373	59.285662765992	0
0	384	61.437000901142	1
0	385	61.634642574159	0
0	392	63.081465727218	1
0	393	63.466931311544	0
0	420	67.941259875385	1
0	422	68.003962397748	2
0	423	68.043310616471	1
0	427	68.185836328973	2
0	429	68.408265467063	3
0	430	68.746118346575	2
0	432	68.746118346575	1
0	433	68.746118346575	0
0	444	72.473499505843	1
0	446	72.486248731134	2
0	447	72.804070308841	1
0	449	72.804070308841	0
0	465	77.469214859287	1
0	466	77.80987330851	0
0	483	86.050504305618	1
0	485	86.169120966828	2
0	486	86.498942921227	1
0	488	86.498942921227	0
0	494	89.2207056219	1
0	495	89.473818517685	0
0	512	94.154567799675	1
0	513	94.392743403224	0
0	525	96.708438561246	1
0	526	96.845771132829	0
0	530	97.474284638624	1
0	531	97.548578862933	0
0	535	97.697678686953	1
0	536	98.251386593037	0
0	543	98.500803272612	1
0	544	99.059608922446	0
0	561	101.455286826065	1
0	562	101.977415741302	0
0	569	102.810012018238	1
0	570	102.943864730197	0
0	574	103.476185372444	1
0	575	103.646672460301	0
0	579	103.697290152589	1
0	580	104.349480190405	0
0	587	107.498662491277	1
0	588	107.499402128297	0
0	602	110.114151911827	1
0	604	110.520073499392	2
0	605	110.58115204153	1
0	607	110.58115204153	0
0	620	112.613568616015	1
0	621	113.194970866933	0
0	633	114.657447059244	1
0	634	115.023988246932	0
0	641	116.229582670311	1
0	642	116.476403224507	0
0	649	117.204720190351	1
0	651	117.325786742807	2
0	652	117.367933546286	1
0	656	117.51294623193	2
0	658	117.746272169011	3
0	659	118.07074127639	2
0	661	118.07074127639	1
0	662	118.07074127639	0
0	673	121.492365638064	1
0	674	122.182419836474	0
0	686	125.040028453363	1
0	688	125.137378431909	2
0	690	125.164123688999	3
0	691	125.270048366505	2
0	693	125.270048366505	1
0	695	125.972856096609	0
0	704	126.707563765007	1
0	705	126.973352401546	0
0	711	128.528925998789	1
0	713	128.98782010695	2
0	714	129.198217221327	1
0	716	129.198217221327	0
0	722	130.140617164853	1
0	723	130.42974344447	0
0	730	132.227593757375	1
0	731	132.666113195874	0
0	738	132.811053636715	1
0	739	133.487896450129	0
0	751	136.324444874759	1
0	752	136.551480160162	0
0	759	137.04920643587	1
0	761	137.667999402011	2
0	762	137.701053543383	1
0	764	137.701053543383	0
0	772	139.587589169856	1
0	773	139.874886773223	0
0	785	145.542191109015	1
0	786	145.615340988236	0
0	790	145.743555464008	1
0	792	145.917796163059	2
0	794	145.950881228347	3
0	795	146.31814871834	2
0	797	146.31814871834	1
0	798	146.31814871834	0
0	804	150.407110656176	1
0	806	150.603242999598	2
0	807	150.779399515773	1
0	809	150.779399515773	0
0	812	151.044357739352	1
0	813	151.482207245877	0
0	820	152.261483112638	1
0	821	152.324992196133	0
0	830	153.253181187464	1
0	832	153.353053660662	2
0	833	153.737414925028	1
0	835	153.737414925028	0
0	841	154.709738827201	1
0	843	154.990013708025	2
0	844	155.095372165162	1
0	846	155.095372165162	0
0	849	155.251345910682	1
0	850	155.798179895266	0
0	857	158.469398963349	1
0	858	158.843947413378	0
0	865	159.117687232079	1
0	867	159.687007478792	2
0	868	159.722541239162	1
0	870	159.722541239162	0
0	898	169.137793748789	1
0	899	169.321461533475	0
0	913	173.090248349906	1
0	914	173.413648879976	0
0	941	178.9615394731	1
0	943	179.560023819404	2
0	944	179.650260318099	1
0	946	179.650260318099	0
0	949	180.271144493655	1
0	950	180.353068048203	0
0	954	180.615560237881	1
0	956	180.750381913532	2
0	957	181.055875778307	1
0	959	181.055875778307	0
0	965	181.558249299786	1
0	967	181.739358179306	2
0	968	181.775329228703	1
0	970	181.775329228703	0
0	973	181.991619515488	1
0	975	182.34590082717	2
0	976	182.478136958807	1
0	978	182.478136958807	0
0	981	182.661162378636	1
0	983	182.802262363402	2
0	984	183.180944688911	1
0	986	183.180944688911	0
0	997	185.17155551855	1
0	999	185.288840873045	2
0	1000	185.746064659944	1
0	1002	185.746064659944	0
0	1013	189.918547299778	1
0	1014	189.996062661659	0
0	1018	190.054450896429	1
0	1020	190.197742518817	2
0	1021	190.698870391763	1
0	1023	190.698870391763	0
0	1029	191.48816256079	1
0	1030	191.98866001826	0
0	1037	192.202688763691	1
0	1039	192.683181834146	2
0	1041	192.694561855035	3
0	1042	192.864930983331	2
0	1044	192.864930983331	1
0	1046	193.567738713435	0
0	1053	194.602945772296	1
0	1054	194.683507505462	0
0	1064	196.047791772556	1
0	1065	196.402431848793	0
0	1072	197.317395091438	1
0	1073	197.370059699584	0
0	1077	197.500700936058	1
0	1079	197.613716767317	2
0	1080	198.072867429688	1
0	1082	198.072867429688	0
0	1093	204.134015396169	1
0	1094	204.830200788548	0
0	1101	205.872062089865	1
0	1103	206.077841235587	2
0	1104	206.45770134033	1
0	1106	206.45770134033	0
0	1117	208.572671498403	1
0	1118	208.935531450262	0
0	1125	209.325962807514	1
0	1127	209.44746144308	2
0	1129	209.891066291918	3
0	1130	209.927530369784	2
0	1132	209.927530369784	1
0	1133	209.927530369784	0
0	1136	210.43357038074	1
0	1137	210.630338099888	0
0	1144	210.813855997646	1
0	1146	211.042270089121	2
0	1147	211.402202437853	1
0	1149	211.402202437853	0
0	1155	212.887389840019	1
0	1156	213.460368448714	0
0	1163	214.331087902097	1
0	1164	214.753805079407	0
0	1171	215.109812412319	1
0	1172	215.558124422485	0
0	1189	218.560723729964	1
0	1190	218.93314997337	0
0	1202	222.823658300266	1
0	1203	222.82520256412	0
0	1222	228.060391712753	1
0	1223	228.250701090751	0
0	1245	233.019423856535	1
0	1246	233.268722917342	0
0	1253	234.279715319089	1
0	1254	234.429971350737	0
0	1258	234.967258151427	1
0	1259	235.132779080841	0
0	1268	239.362866890801	1
0	1269	239.961255454698	0
0	1276	241.033075615377	1
0	1278	241.066110599262	2
0	1280	241.260291056746	3
0	1282	241.378751978557	4
0	1283	241.635645633728	3
0	1285	241.635645633728	2
0	1286	241.635645633728	1
0	1287	241.635645633728	0
0	1298	242.950573081775	1
0	1299	243.528109702588	0
0	1306	244.055538863946	1
0	1308	244.168433389973	2
0	1309	244.398680986304	1
0	1311	244.398680986304	0
0	1317	245.393965319444	1
0	1318	245.48273131553	0
0	1342	250.91584824331	1
0	1344	251.101961347595	2
0	1345	251.272330821461	1
0	1347	251.272330821461	0
0	1350	251.791424129933	1
0	1351	251.975138551565	0
0	1355	252.277067846329	1
0	1357	252.538843303318	2
0	1358	252.677946281669	1
0	1360	252.677946281669	0
0	1363	253.17442923077	1
0	1364	253.380754011773	0
0	1376	256.387062321447	1
0	1378	256.501807105899	2
0	1379	256.659530744166	1
0	1381	256.659530744166	0
0	1384	256.780123050732	1
0	1385	257.36233847427	0
0	1413	263.740550093669	1
0	1414	264.389565540096	0
0	1431	268.955104066618	1
0	1433	269.550168262633	2
0	1434	269.551589707191	1
0	1436	269.551589707191	0
0	1439	269.686530283675	1
0	1441	269.800500101113	2
0	1443	270.04821047612	3
0	1444	270.254397437295	2
0	1446	270.254397437295	1
0	1447	270.254397437295	0
0	1458	271.771140947802	1
0	1459	271.911257875118	0
0	1478	277.335647950569	1
0	1479	277.70873532525	0
0	1491	278.636726498438	1
0	1493	278.747559150361	2
0	1494	279.329775124165	1
0	1496	279.329775124165	0
0	1517	285.74671769446	1
0	1519	285.810867579221	2
0	1521	285.855147656145	3
0	1523	285.943106245995	4
0	1524	286.090832789223	3
0	1526	286.090832789223	2
0	1527	286.090832789223	1
0	1528	286.090832789223	0
0	1546	289.649273312687	1
0	1547	289.820003593452	0
0	1551	289.871998433394	1
0	1552	290.522811323556	0
0	1564	296.876754097743	1
0	1566	296.939503072198	2
0	1567	297.271484269914	1
0	1569	297.271484269914	0
0	1575	297.795611088527	1
0	1577	298.123652131034	2
0	1579	298.142571867489	3
0	1580	298.422839209725	2
0	1582	298.422839209725	1
0	1583	298.422839209725	0
0	1619	308.811272731179	1
0	1620	309.362079238552	0
0	1627	310.172196825279	1
0	1629	310.398854526579	2
0	1630	310.534100828397	1
0	1632	310.534100828397	0
0	1640	312.461431876237	1
0	1641	312.871622020343	0
0	1648	313.488886049775	1
0	1650	313.728887401778	2
0	1651	314.118067712021	1
0	1653	314.118067712021	0
0	1659	316.243706666018	1
0	1661	316.355814564173	2
0	1662	316.454142437532	1
0	1664	316.454142437532	0
0	1682	319.167966222047	1
0	1683	319.771269130378	0
0	1690	319.956263075566	1
0	1692	319.994984641	2
0	1694	320.153507220754	3
0	1696	320.276451802459	4
0	1697	320.569312245371	3
0	1699	320.569312245371	2
0	1700	320.569312245371	1
0	1701	320.569312245371	0
0	1712	321.744790227285	1
0	1713	322.352412949129	0
0	1725	324.67307495011	1
0	1726	325.313844938762	0
0	1733	326.98054969504	1
0	1735	327.523964052065	2
0	1736	327.543061091747	1
0	1738	327.543061091747	0
0	1748	330.057830273855	1
0	1750	330.148976268839	2
0	1751	330.197163705626	1
0	1754	330.534458993632	2
0	1755	330.89997143573	1
0	1757	330.89997143573	0
0	1763	332.153286085952	1
0	1764	332.181997517419	0
0	1778	336.683120646812	1
0	1780	336.687916366508	2
0	1781	336.966415867862	1
0	1783	336.966415867862	0
0	1789	337.187018257402	1
0	1790	337.859784841778	0
0	1812	343.254572157589	1
0	1814	343.370544951287	2
0	1815	343.424814332426	1
0	1818	344.12762206253	0
0	1825	346.792775255898	1
0	1826	347.132971210652	0
0	1833	347.581854510055	1
0	1835	347.915956437883	2
0	1837	348.200131612979	3
0	1838	348.229346366863	2
0	1840	348.229346366863	1
0	1841	348.229346366863	0
0	1844	348.725478453552	1
0	1845	348.932154096967	0
0	1857	352.086519246927	1
0	1858	352.67087032517	0
0	1870	355.463176397715	1
0	1871	355.543583687984	0
0	1875	356.153148781773	1
0	1876	356.246391418088	0
0	1895	361.021543291287	1
0	1897	361.045143108222	2
0	1898	361.205329244599	1
0	1901	361.908136974703	0
0	1908	362.820935171019	1
0	1909	362.893438118811	0
0	1913	362.96527530538	1
0	1914	363.596245848915	0
0	1926	366.954628284341	1
0	1928	367.08817409194	2
0	1929	367.316800746861	1
0	1931	367.316800746861	0
0	1952	371.153624971781	1
0	1953	371.474733606235	0
0	1975	381.870697392832	1
0	1976	382.157647912336	0
0	1983	382.988614393711	1
0	1985	383.199617759227	2
0	1986	383.397418153095	1
0	1988	383.397418153095	0
0	1994	385.523619686286	1
0	1995	385.701672816338	0
0	1999	385.990492702432	1
0	2001	386.121788758522	2
0	2003	386.286442899398	3
0	2004	386.404480546442	2
0	2006	386.404480546442	1
0	2007	386.404480546442	0
0	2025	392.191673799962	1
0	2026	392.780367269277	0
0	2043	398.515003330371	1
0	2044	398.822911018606	0
0	2056	400.922281486921	1
0	2057	401.471833003341	0
0	2064	401.649006999986	1
0	2065	402.258082737537	0
0	2072	404.801858742286	1
0	2075	405.235270790612	0
0	2081	405.928739680592	1
0	2082	406.372339311988	0
0	2089	407.516979388836	1
0	2091	407.926044508627	2
0	2093	407.999750071382	3
0	2094	408.077938213437	2
0	2096	408.077938213437	1
0	2099	408.205410940659	2
0	2100	408.780745943541	1
0	2102	408.780745943541	0
0	2108	410.319307841385	1
0	2109	410.43407156482	0
0	2118	412.320421302424	1
0	2120	412.337672182462	2
0	2122	412.600747927558	3
0	2123	412.692978471745	2
0	2125	412.692978471745	1
0	2126	412.692978471745	0
0	2139	415.170184255693	1
0	2140	415.209181839132	0
0	2144	415.310611928078	1
0	2145	415.911989569236	0
0	2152	419.154042813297	1
0	2154	419.214709690141	2
0	2155	419.659702878536	1
0	2157	419.659702878536	0
0	2163	420.579710482603	1
0	2165	420.695056520606	2
0	2166	421.273641745684	1
0	2168	421.273641745684	0
0	2174	424.750787691223	1
0	2176	424.976250724138	2
0	2178	424.982588293226	3
0	2180	425.006423738965	4
0	2181	425.302874952615	3
0	2183	425.302874952615	2
0	2184	425.302874952615	1
0	2185	425.302874952615	0
0	2196	427.568947515938	1
0	2197	427.912105857572	0
0	2239	441.346231092438	1
0	2240	441.81042180187	0
0	2247	442.513572424576	1
0	2249	442.640764497553	2
0	2250	442.678673604245	1
0	2254	443.02689640141	2
0	2255	443.381481334349	1
0	2257	443.381481334349	0
0	2268	444.500259721992	1
0	2270	444.828564095739	2
0	2271	444.960271355877	1
0	2273	444.960271355877	0
0	2296	449.755113444781	1
0	2298	449.9467731809	2
0	2299	450.197827563723	1
0	2301	450.197827563723	0
0	2312	452.978010996435	1
0	2313	453.086474810112	0
0	2327	457.402286122908	1
0	2328	457.518398066599	0
0	2332	458.163032607702	1
0	2333	458.221205796703	0
0	2337	458.564948682587	1
0	2339	458.743363212077	2
0	2340	458.924013526807	1
0	2342	458.924013526807	0
0	2345	458.952847701988	1
0	2347	459.031074011934	2
0	2348	459.626821256911	1
0	2350	459.626821256911	0
0	2361	463.624975225594	1
0	2362	463.8721718019	0
0	2374	465.629438584717	1
0	2376	465.688549189814	2
0	2377	465.842576696663	1
0	2379	465.842576696663	0
0	2382	466.447202789047	1
0	2383	466.545384426767	0
0	2428	481.502852635506	1
0	2430	481.537294958728	2
0	2432	481.709740638647	3
0	2433	481.892183572705	2
0	2435	481.892183572705	1
0	2436	481.892183572705	0
0	2439	482.482098682771	1
0	2440	482.594991302809	0
0	2444	482.898103538344	1
0	2445	483.297799032913	0
0	2452	483.647898424852	1
0	2453	484.164641797828	0
0	2460	485.578762363827	1
0	2461	485.872109214489	0
0	2478	491.708867152119	1
0	2479	492.171615099021	0
0	2486	492.915263427154	1
0	2487	493.500416432676	0
0	2494	493.838609372057	1
0	2496	494.088754041684	2
0	2497	494.31478502894	1
0	2499	494.31478502894	0
0	2510	496.385917436474	1
0	2511	496.619357504174	0
0	2518	498.056796868705	1
0	2519	498.247607360434	0
0	2536	501.762194085583	1
0	2537	502.010769505982	0
0	2549	503.819130740909	1
0	2550	503.88762957168	0
0	2559	505.319361905772	1
0	2560	505.590496363819	0
0	2567	506.760302449694	1
0	2568	507.150529715659	0
0	2585	511.668598350633	1
0	2587	512.06386370024	2
0	2588	512.095013460417	1
0	2590	512.095013460417	0
0	2593	512.40719678691	1
0	2594	512.797821190521	0
0	2601	513.406065606891	1
0	2603	513.596157280672	2
0	2604	513.69027398063	1
0	2606	513.69027398063	0
0	2609	513.850208434485	1
0	2611	514.238999688684	2
0	2612	514.393081710734	1
0	2614	514.393081710734	0
0	2617	514.55745608262	1
0	2618	515.095889440838	0
0	2625	515.880408695684	1
0	2626	516.227350384967	0
0	2638	518.663238895577	1
0	2639	518.837237657505	0
0	2643	519.490922093331	1
0	2644	519.540045387609	0
0	2648	520.149004472519	1
0	2649	520.242853117713	0
0	2653	520.5012071647	1
0	2654	520.945660847817	0
0	2671	526.750232865999	1
0	2672	526.768360123815	0
0	2676	527.135097858983	1
0	2677	527.471167853919	0
0	2694	530.6831813637	1
0	2695	531.285343347501	0
0	2702	532.168316000806	1
0	2704	532.287835946538	2
0	2705	532.686185163069	1
0	2707	532.686185163069	0
0	2713	534.196643983788	1
0	2715	534.451185465137	2
0	2717	534.467336300922	3
0	2719	534.579861953814	4
0	2721	534.698600431489	5
0	2722	534.82669841257	4
0	2724	534.82669841257	3
0	2725	534.82669841257	2
0	2726	534.82669841257	1
0	2727	534.82669841257	0
0	2730	534.967635676842	1
0	2732	535.358868674338	2
0	2733	535.529506142674	1
0	2735	535.529506142674	0
0	2743	536.481878733298	1
0	2744	537.003036401059	0
0	2751	538.257070953856	1
0	2753	538.420048875226	2
0	2756	539.041820328972	1
0	2757	539.041820328972	0
0	2788	545.600323778792	1
0	2789	546.036241881069	0
0	2796	546.906425656848	1
0	2797	547.250130510335	0
0	2804	549.163703271704	1
0	2805	549.340770222707	0
0	2809	549.501023925709	1
0	2811	549.672884730872	2
0	2812	550.043577952811	1
0	2814	550.043577952811	0
0	2820	551.015012978343	1
0	2822	551.140497530923	2
0	2823	551.283871583068	1
0	2825	551.283871583068	0
0	2828	551.735246185402	1
0	2830	551.888751693786	2
0	2831	551.986679313172	1
0	2833	551.986679313172	0
0	2836	552.464388825973	1
0	2837	552.689487043276	0
0	2849	554.743750164835	1
0	2851	554.93387345149	2
0	2852	555.152264403527	1
0	2854	555.152264403527	0
0	2860	555.901021393538	1
0	2861	555.998894068969	0
0	2865	556.075769222104	1
0	2866	556.701701799073	0
0	2873	560.066219689894	1
0	2874	560.503736838089	0
0	2881	561.07560466944	1
0	2882	561.628917025345	0
0	2894	562.915898191548	1
0	2895	563.465661238225	0
0	2907	565.62141667115	1
0	2909	565.943615879264	2
0	2911	565.951742755296	3
0	2912	566.306936048639	2
0	2914	566.306936048639	1
0	2915	566.306936048639	0
0	2921	566.612186349944	1
0	2922	567.111999644894	0
0	2929	568.045777422938	1
0	2930	568.363088892272	0
0	2937	569.854113532316	1
0	2938	570.082410302937	0
0	2945	571.266971109362	1
0	2946	571.673804279511	0
0	2958	577.297134102957	1
0	2959	577.698100518276	0
0	2966	578.745061578056	1
0	2967	579.31816154723	0
0	2974	579.752028897169	1
0	2975	580.209736911939	0
0	2992	585.216825220771	1
0	2994	585.298776127449	2
0	2995	585.844191005667	1
0	2997	585.844191005667	0
0	3003	586.240650335806	1
0	3005	586.64262177133	2
0	3006	586.643738463233	1
0	3008	586.643738463233	0
0	3016	589.280246635976	1
0	3017	589.357205491087	0
0	3021	589.495055888028	1
0	3023	589.523422700287	2
0	3025	589.946507278206	3
0	3026	590.060013221191	2
0	3028	590.060013221191	1
0	3029	590.060013221191	0
0	3042	593.069680781681	1
0	3043	593.551171100813	0
0	3050	593.985960717343	1
0	3051	594.40570009184	0
0	3058	596.693226088326	1
0	3059	597.252938135909	0
0	3066	598.223155011214	1
0	3067	598.225798482285	0
0	3081	601.266198187404	1
0	3083	601.384770832394	2
0	3084	601.598172209932	1
0	3086	601.598172209932	0
0	3092	602.704233160353	1
0	3093	602.71382901363	0
0	3097	603.340482135679	1
0	3098	603.416636743734	0
0	3102	603.516843394511	1
0	3104	603.822633661606	2
0	3106	603.879240594678	3
0	3107	604.119444473838	2
0	3109	604.119444473838	1
0	3110	604.119444473838	0
0	3116	605.087404010261	1
0	3120	605.280148846552	2
0	3121	605.42971577692	1
0	3122	605.42971577692	0
0	3125	605.432295923681	1
0	3127	605.613758368237	2
0	3129	606.127277518854	3
0	3130	606.132523507024	2
0	3132	606.132523507024	1
0	3133	606.132523507024	0
0	3136	606.611115730608	1
0	3138	606.653780477723	2
0	3139	606.835331237128	1
0	3141	606.835331237128	0
0	3144	607.037588508462	1
0	3146	607.256957910218	2
0	3147	607.538138967232	1
0	3149	607.538138967232	0
0	3160	609.782102866819	1
0	3161	610.027294260576	0
0	3173	614.014032283254	1
0	3174	614.283908089609	0
0	3186	615.253483877426	1
0	3188	615.551805682838	2
0	3189	615.798597392755	1
0	3191	615.798597392755	0
0	3197	616.31493179787	1
0	3198	616.961073319454	0
0	3210	618.997138184831	1
0	3211	619.318402149381	0
0	3218	621.768836075018	1
0	3219	621.984005851778	0
0	3231	623.067737049131	1
0	3232	623.563805975063	0
0	3239	624.670343705192	1
0	3240	625.348382345408	0
0	3252	628.174182557207	1
0	3254	628.43683953141	2
0	3255	628.500260266762	1
0	3257	628.500260266762	0
0	3270	630.497791048408	1
0	3272	630.620846171259	2
0	3274	630.931620214485	3
0	3275	631.172476475792	2
0	3277	631.172476475792	1
0	3278	631.172476475792	0
0	3284	631.356908793265	1
0	3285	632.007287644524	0
0	3292	632.754258979855	1
0	3293	632.990787077997	0
0	3300	633.709666377322	1
0	3301	634.238290195015	0
0	3313	635.879652756138	1
0	3314	636.064269927616	0
0	3323	637.605485915124	1
0	3324	638.125839592295	0
0	3331	638.602039917647	1
0	3333	639.136059808809	2
0	3335	639.195944460697	3
0	3336	639.255483441374	2
0	3338	639.255483441374	1
0	3341	639.281833696203	2
0	3343	639.539272762091	3
0	3344	639.958291171478	2
0	3346	639.958291171478	1
0	3347	639.958291171478	0
0	3358	641.930434109867	1
0	3360	642.514000122723	2
0	3361	642.524270856355	1
0	3363	642.524270856355	0
0	3366	642.993202219522	1
0	3367	643.227078586459	0
0	3374	645.422735521356	1
0	3375	645.733016869075	0
0	3392	651.995934757264	1
0	3394	652.010476564461	2
0	3395	652.501981622849	1
0	3397	652.501981622849	0
0	3418	656.956149429135	1
0	3420	657.0343813736	2
0	3422	657.150980860257	3
0	3423	657.235984951917	2
0	3425	657.235984951917	1
0	3426	657.235984951917	0
0	3429	657.272857897097	1
0	3431	657.474751258806	2
0	3432	657.938792682021	1
0	3434	657.938792682021	0
0	3440	658.684447521003	1
0	3442	658.804765096371	2
0	3444	659.000091047427	3
0	3445	659.006243734718	2
0	3447	659.006243734718	1
0	3448	659.006243734718	0
0	3451	659.399516423587	1
0	3452	659.709051464822	0
0	3459	660.894049132597	1
0	3461	661.204999705934	2
0	3462	661.350424360315	1
0	3464	661.350424360315	0
0	3467	661.699784683066	1
0	3469	661.839614769246	2
0	3470	662.053232090419	1
0	3472	662.053232090419	0
0	3478	662.665877376936	1
0	3480	662.673067869568	2
0	3482	662.859205568525	3
0	3483	662.871428622694	2
0	3485	662.871428622694	1
0	3486	662.871428622694	0
0	3489	663.130738569273	1
0	3491	663.430862862461	2
0	3492	663.574236352798	1
0	3494	663.574236352798	0
0	3508	665.971004393776	1
0	3509	666.544695980475	0
0	3516	668.58757494561	1
0	3517	668.964665021928	0
0	3534	671.967695268493	1
0	3536	672.347257805638	2
0	3537	672.623757254659	1
0	3539	672.623757254659	0
0	3550	674.516104045918	1
0	3551	674.606120258886	0
0	3555	675.023082501122	1
0	3557	675.181353515476	2
0	3558	675.30892798899	1
0	3560	675.30892798899	0
0	3563	675.481674926754	1
0	3564	676.011735719094	0
0	3571	678.022891222385	1
0	3572	678.706236688106	0
0	3594	684.4749582498	1
0	3595	684.594492300865	0
0	3599	684.6722400749	1
0	3601	684.684875457886	2
0	3602	685.297300030969	1
0	3604	685.297300030969	0
0	3615	687.639440097994	1
0	3617	687.899477197867	2
0	3619	688.027901246097	3
0	3620	688.078150063394	2
0	3622	688.078150063394	1
0	3625	688.245307134851	2
0	3627	688.353992683348	3
0	3628	688.780957793498	2
0	3630	688.780957793498	1
0	3631	688.780957793498	0
0	3637	689.252471928568	1
0	3639	689.256380627777	2
0	3641	689.454053497284	3
0	3642	689.488344109861	2
0	3644	689.488344109861	1
0	3645	689.488344109861	0
0	3653	691.557668377812	1
0	3654	691.822540190138	0
0	3661	692.190019029442	1
0	3663	692.567234920951	2
0	3664	692.842362467063	1
0	3666	692.842362467063	0
0	3672	693.290550001627	1
0	3674	693.469469129034	2
0	3676	693.817683066758	3
0	3678	693.843316556433	4
0	3679	693.89271734598	3
0	3681	693.89271734598	2
0	3682	693.89271734598	1
0	3684	694.595525076084	0
0	3696	696.342898244991	1
0	3698	696.380595498558	2
0	3699	696.497492834613	1
0	3702	697.200300564717	0
0	3709	697.31054300716	1
0	3710	697.926359954249	0
0	3727	700.750464759053	1
0	3729	701.105043382603	2
0	3731	701.283348233929	3
0	3732	701.382510710466	2
0	3734	701.382510710466	1
0	3735	701.382510710466	0
0	3738	701.643061505026	1
0	3740	702.00733500275	2
0	3741	702.08531844057	1
0	3743	702.08531844057	0
0	3746	702.283583051407	1
0	3747	702.788126170674	0
0	3759	704.189928968565	1
0	3760	704.809914301434	0
0	3767	706.225089477707	1
0	3769	706.315093044609	2
0	3770	706.677497583991	1
0	3772	706.677497583991	0
0	3778	707.930966153734	1
0	3779	708.021606457391	0
0	3783	708.225320260178	1
0	3784	708.724414187495	0
0	3791	710.772376675365	1
0	3792	711.260132186647	0
0	3814	716.693203059036	1
0	3815	716.873982308866	0
0	3819	717.38509235642	1
0	3820	717.57679003897	0
0	3832	719.855135691425	1
0	3833	719.876137814516	0
0	3837	720.047230316182	1
0	3839	720.205883717693	2
0	3840	720.57894554462	1
0	3842	720.57894554462	0
0	3853	723.133550966073	1
0	3855	723.305103549215	2
0	3857	723.648129690798	3
0	3858	723.69056781321	2
0	3860	723.69056781321	1
0	3861	723.69056781321	0
0	3870	725.538911645414	1
0	3871	726.20801118773	0
0	3883	727.869837393165	1
0	3884	728.452114466836	0
0	3891	730.403485312662	1
0	3893	730.639433412997	2
0	3894	731.085368942199	1
0	3896	731.085368942199	0
0	3907	732.893144781481	1
0	3909	732.920822584136	2
0	3911	733.248436119207	3
0	3912	733.284087694418	2
0	3914	733.284087694418	1
0	3915	733.284087694418	0
0	3918	733.516669727992	1
0	3920	733.615385885378	2
0	3921	733.986895424522	1
0	3923	733.986895424522	0
0	3939	741.132915574208	1
0	3940	741.525470106514	0
0	3947	744.875824628138	1
0	3948	745.567252674879	0
0	3955	746.250838447287	1
0	3956	746.631237048288	0
0	3973	751.396603373872	1
0	3974	751.66425953193	0
0	3981	752.611337729556	1
0	3982	752.863195987665	0
0	3989	753.886497999957	1
0	3991	754.049951863318	2
0	3993	754.138658938432	3
0	3994	754.451677179381	2
0	3996	754.451677179381	1
0	3997	754.451677179381	0
0	4003	755.779810277078	1
0	4004	756.127810031102	0
0	4011	756.858289032321	1
0	4012	757.185636136587	0
0	4034	762.47704045179	1
0	4035	762.818689301293	0
0	4042	764.689501851684	1
0	4043	765.001480566335	0
0	4050	765.220241656478	1
0	4052	765.395556936444	2
0	4053	765.778287320194	1
0	4055	765.778287320194	0
0	4061	765.89840937487	1
0	4062	766.513383576777	0
0	4069	767.781997161788	1
0	4070	768.360244729042	0
0	4077	769.237764533894	1
0	4079	769.266032995678	2
0	4080	769.445218819418	1
0	4082	769.445218819418	0
0	4085	769.903867287366	1
0	4086	770.148026549522	0
0	4108	776.981827259701	1
0	4109	777.095854118878	0
0	4113	777.719401393924	1
0	4114	777.798661848982	0
0	4118	778.287668920625	1
0	4119	778.501469579086	0
0	4136	782.515838293952	1
0	4137	782.545095308581	0
0	4141	782.767855799083	1
0	4143	783.240035610938	2
0	4144	783.247903038685	1
0	4146	783.247903038685	0
0	4164	788.753692737572	1
0	4165	789.390005611267	0
0	4172	789.972977483771	1
0	4174	789.977751514125	2
0	4175	790.20174009275	1
0	4177	790.20174009275	0
0	4188	792.386612879315	1
0	4189	792.722228955074	0
0	4206	796.820227865281	1
0	4208	797.334925528063	2
0	4209	797.501094692713	1
0	4211	797.501094692713	0
0	4214	797.612077401867	1
0	4216	797.706366911878	2
0	4219	798.477547817252	1
0	4220	798.477547817252	0
0	4231	800.913404931903	1
0	4232	801.159086352329	0
0	4239	801.883181673016	1
0	4240	802.354506518358	0
0	4252	804.749026624886	1
0	4253	804.919449937359	0
0	4262	806.028344430837	1
0	4263	806.49901701591	0
0	4270	806.825543289731	1
0	4272	806.886359896538	2
0	4274	807.254369745367	3
0	4275	807.297427430732	2
0	4277	807.297427430732	1
0	4278	807.297427430732	0
0	4281	807.651941833074	1
0	4282	808.000235160836	0
0	4294	813.50307524303	1
0	4295	813.615558464575	0
0	4299	813.694081152928	1
0	4301	813.869302296711	2
0	4302	814.318366194679	1
0	4304	814.318366194679	0
0	4330	823.857481544702	1
0	4331	824.466963293832	0
0	4343	826.595433679518	1
0	4345	827.000255386272	2
0	4346	827.258574063698	1
0	4348	827.258574063698	0
0	4354	828.19443559057	1
0	4356	828.23487156284	2
0	4357	828.584643095267	1
0	4359	828.584643095267	0
0	4410	846.11282485066	1
0	4411	846.184427843913	0
0	4415	846.508792726011	1
0	4416	846.887235574017	0
0	4423	847.827105080355	1
0	4425	848.193075534076	2
0	4427	848.221185667547	3
0	4428	848.411120248843	2
0	4430	848.411120248843	1
0	4431	848.411120248843	0
0	4442	849.488074179001	1
0	4443	849.902203836565	0
0	4455	854.174793202847	1
0	4457	854.35170427131	2
0	4458	854.37688604823	1
0	4460	854.37688604823	0
0	4473	858.595672205314	1
0	4474	859.16845004195	0
0	4486	865.4113869408	1
0	4487	865.434379098132	0
0	4491	865.687747683859	1
0	4492	866.137186828236	0
0	4499	866.53235874244	1
0	4501	866.630782126193	2
0	4502	866.898897037886	1
0	4504	866.898897037886	0
0	4510	868.25514244667	1
0	4511	868.28032700087	0
0	4515	868.820579556023	1
0	4516	868.983134730974	0
0	4520	869.221046686164	1
0	4521	869.685942461078	0
0	4528	870.435828695434	1
0	4529	870.661419036333	0
0	4546	873.429179405312	1
0	4549	874.335902950178	0
0	4560	876.95415302285	1
0	4561	876.966336172152	0
0	4570	878.304849380316	1
0	4572	878.653550228043	2
0	4574	878.967776843435	3
0	4575	878.990176269365	2
0	4577	878.990176269365	1
0	4578	878.990176269365	0
0	4581	879.400659413735	1
0	4583	879.648120311444	2
0	4584	879.692983999469	1
0	4586	879.692983999469	0
0	4594	881.009037640509	1
0	4595	881.457040675555	0
0	4612	887.751383839916	1
0	4613	888.142817556437	0
0	4620	888.870985534962	1
0	4621	889.403683769274	0
0	4633	891.411364338723	1
0	4634	891.671436981866	0
0	4641	892.568648793357	1
0	4642	892.609672227735	0
0	4646	892.638186731572	1
0	4647	893.312479957839	0
0	4654	894.151097153102	1
0	4655	894.166279830499	0
0	4659	894.543759485191	1
0	4661	894.55555100966	2
0	4662	894.869087560603	1
0	4664	894.869087560603	0
0	4670	895.93948075228	1
0	4672	896.287711909353	2
0	4673	896.474964905767	1
0	4675	896.474964905767	0
0	4691	899.695634963443	1
0	4692	900.252496063857	0
0	4699	901.696840473913	1
0	4700	901.716575789861	0
0	4719	904.855032669691	1
0	4721	904.884788117282	2
0	4722	905.282301045773	1
0	4724	905.282301045773	0
0	4730	906.127720181983	1
0	4732	906.184946578145	2
0	4734	906.361152298278	3
0	4736	906.427728180775	4
0	4737	906.735436881059	3
0	4739	906.735436881059	2
0	4740	906.735436881059	1
0	4741	906.735436881059	0
0	4762	911.94763632889	1
0	4763	912.019075741364	0
0	4767	912.106142857722	1
0	4769	912.532831933592	2
0	4770	912.721883471468	1
0	4772	912.721883471468	0
0	4788	917.604930870608	1
0	4789	917.819461300497	0
0	4806	921.097638841723	1
0	4807	921.506302094123	0
0	4819	925.725151936716	1
0	4821	925.731182689241	2
0	4822	925.787622414348	1
0	4825	926.490430144452	0
0	4837	928.107134740755	1
0	4839	928.362241803714	2
0	4840	928.727056450256	1
0	4842	928.727056450256	0
0	4848	929.405733072775	1
0	4849	929.499360744798	0
0	4863	933.366416628161	1
0	4864	933.441895114173	0
0	4878	936.457306533388	1
0	4881	936.82562501571	0
0	4887	939.097688956148	1
0	4888	939.302449125721	0
0	4900	941.179759524365	1
0	4901	941.477038642691	0
0	4908	941.865765302026	1
0	4909	942.537597406606	0
0	4916	942.793286343588	1
0	4917	943.25816523197	0
0	4924	944.994248302831	1
0	4926	945.250820293808	2
0	4927	945.568706267269	1
0	4929	945.568706267269	0
0	4940	946.988457027942	1
0	4942	947.265350502456	2
0	4943	947.655543693221	1
0	4945	947.655543693221	0
0	4956	949.685064937258	1
0	4958	949.804516952936	2
0	4959	950.246243997702	1
0	4961	950.246243997702	0
0	4972	951.995749679747	1
0	4973	952.153933680571	0
0	4997	961.176312699214	1
0	4999	961.296841364354	2
0	5000	961.43587931501	1
0	5002	961.43587931501	0
0	5010	962.569581689777	1
0	5012	962.642222171559	2
0	5014	962.768971465899	3
0	5015	963.035630625331	2
0	5017	963.035630625331	1
0	5018	963.035630625331	0
0	5029	964.604545805171	1
0	5030	965.00929664031	0
0	5037	966.830884781961	1
0	5038	967.249732359313	0
0	5050	968.337567490767	1
0	5051	968.936494869588	0
0	5073	973.977339810704	1
0	5074	974.534065796823	0
0	5081	976.103454622939	1
0	5082	976.611055658038	0
0	5089	976.933358595292	1
0	5090	977.347778090735	0
0	5097	978.706232402757	1
0	5099	978.834514461022	2
0	5100	979.10860378074	1
0	5102	979.10860378074	0
0	5113	981.461046912286	1
0	5114	981.842931756022	0
0	5121	982.71668888037	1
0	5122	982.917805777637	0
0	5134	986.471663889047	1
0	5135	986.471982133541	0
0	5144	989.789457416531	1
0	5145	989.947611147206	0
0	5159	996.918353535604	1
0	5161	997.111347724532	2
0	5162	997.343160565559	1
0	5164	997.343160565559	0
0	5170	999.746005042867	1
0	5171	999.811470166991	0
1	5	0.940013894122	0.702807730104
1	14	3.255827609449	0.702807730104
1	24	3.958635339553	0.858163062965
1	34	4.661443069657	0.799257817289
1	40	5.364250799761	0.860995038797
1	47	6.850404208849	0.702807730104
1	53	9.356679885084	0.702807730104
1	58	10.158397365964	0.702807730104
1	67	12.168333279792	0.702807730104
1	76	14.133260658234	0.702807730104
1	84	14.918841039618	0.702807730104
1	87	15.621648769722	0.707487965534
1	92	16.612441523355	0.702807730104
1	99	18.853585703005	0.702807730104
1	108	19.556393433109	0.878329106564
1	114	20.259201163213	0.872056709087
1	120	20.962008893317	0.829007149954
1	123	21.664816623421	0.883786098032
1	128	23.356394147978	0.702807730104
1	135	24.488103327992	0.702807730104
1	141	25.933175377964	0.702807730104
1	150	27.305000558417	0.702807730104
1	157	28.341316135225	0.702807730104
1	162	29.567698203198	0.702807730104
1	167	30.597864093037	0.702807730104
1	174	31.460307400648	0.702807730104
1	180	32.618088140072	0.702807730104
1	189	34.070751646209	0.702807730104
1	192	34.773559376313	0.847095227735
1	204	35.84446221968	0.702807730104
1	208	36.547269949784	0.767146086788
1	216	39.456223365414	0.702807730104
1	226	41.085059090014	0.702807730104
1	229	41.787866820118	0.750186046786
1	243	44.834203829057	0.702807730104
1	253	45.537011559161	0.724371534028
1	259	46.239819289265	0.84329316668
1	267	47.13712699695	0.702807730104
1	272	47.839934727054	0.885217529317
1	280	48.953880140583	0.702807730104
1	296	51.212657570924	0.702807730104
1	307	51.915465301028	0.811269327792
1	313	52.618273031132	0.784273824919
1	323	53.638298610481	0.702807730104
1	330	54.561202995551	0.702807730104
1	337	55.437593911803	0.702807730104
1	343	56.308376616754	0.702807730104
1	352	57.176172538163	0.702807730104
1	359	58.024303591118	0.702807730104
1	370	59.012017371557	0.702807730104
1	379	60.716735167499	0.702807730104
1	386	61.634642574159	0.702807730104
1	394	63.466931311544	0.702807730104
1	400	64.191565124649	0.702807730104
1	405	65.105256799456	0.702807730104
1	410	66.194883993243	0.702807730104
1	415	67.235929534331	0.702807730104
1	424	68.043310616471	0.702807730104
1	431	68.746118346575	0.80485847119
1	439	71.611950934708	0.702807730104
1	448	72.804070308841	0.702807730104
1	455	73.929700977196	0.702807730104
1	460	74.987404182078	0.702807730104
1	467	77.80987330851	0.702807730104
1	473	79.421167437952	0.702807730104
1	478	80.979974290713	0.702807730104
1	487	86.498942921227	0.702807730104
1	496	89.473818517685	0.702807730104
1	502	90.59653863505	0.702807730104
1	507	92.058808798068	0.702807730104
1	514	94.392743403224	0.702807730104
1	520	95.361450628078	0.702807730104
1	527	96.845771132829	0.702807730104
1	532	97.548578862933	0.840140301687
1	537	98.251386593037	0.777101954413
1	545	99.059608922446	0.702807730104
1	551	99.959718372486	0.702807730104
1	556	100.899718690237	0.702807730104
1	563	101.977415741302	0.702807730104
1	571	102.943864730197	0.702807730104
1	576	103.646672460301	0.836660442063
1	581	104.349480190405	0.873294817961
1	589	107.499402128297	0.702807730104
1	592	108.202209858401	0.703547367124
1	597	109.211176981352	0.702807730104
1	606	110.58115204153	0.702807730104
1	610	111.283959771634	0.763886272242
1	615	112.141889691144	0.702807730104
1	622	113.194970866933	0.702807730104
1	628	114.183782867316	0.702807730104
1	635	115.023988246932	0.702807730104
1	643	116.476403224507	0.702807730104
1	653	117.367933546286	0.702807730104
1	660	118.07074127639	0.866021086039
1	668	119.799052668632	0.702807730104
1	675	122.182419836474	0.702807730104
1	681	124.506687743416	0.702807730104
1	692	125.270048366505	0.702807730104
1	696	125.972856096609	0.8354776647
1	702	126.699707007111	0.702807730104
1	715	129.198217221327	0.702807730104
1	724	130.42974344447	0.702807730104
1	732	132.666113195874	0.702807730104
1	740	133.487896450129	0.702807730104
1	746	135.825488304704	0.702807730104
1	753	136.551480160162	0.702807730104
1	763	137.701053543383	0.702807730104
1	767	138.403861273487	0.735861871476
1	774	139.874886773223	0.702807730104
1	780	141.492525810802	0.702807730104
1	787	145.615340988236	0.702807730104
1	796	146.31814871834	0.775957609325
1	808	150.779399515773	0.702807730104
1	814	151.482207245877	0.878964246279
1	822	152.324992196133	0.702807730104
1	825	153.027799926237	0.766316813599
1	834	153.737414925028	0.702807730104
1	845	155.095372165162	0.702807730104
1	851	155.798179895266	0.808166187241
1	859	158.843947413378	0.702807730104
1	869	159.722541239162	0.702807730104
1	873	160.425348969266	0.738341490474
1	878	161.140197218413	0.702807730104
1	883	162.174105214774	0.702807730104
1	888	166.343335780956	0.702807730104
1	893	168.477040139479	0.702807730104
1	900	169.321461533475	0.702807730104
1	903	170.024269263579	0.88647551479
1	908	172.675655222157	0.702807730104
1	915	173.413648879976	0.702807730104
1	921	175.385400858282	0.702807730104
1	926	176.369712036392	0.702807730104
1	931	177.378271785132	0.702807730104
1	936	178.767189765887	0.702807730104
1	945	179.650260318099	0.702807730104
1	951	180.353068048203	0.793044228799
1	958	181.055875778307	0.784731284652
1	969	181.775329228703	0.702807730104
1	977	182.478136958807	0.738778779501
1	985	183.180944688911	0.835043861741
1	992	184.37695077478	0.702807730104
1	1001	185.746064659944	0.702807730104
1	1008	187.704944739519	0.702807730104
1	1015	189.996062661659	0.702807730104
1	1022	190.698870391763	0.780323091985
1	1031	191.98866001826	0.702807730104
1	1043	192.864930983331	0.702807730104
1	1047	193.567738713435	0.884556879289
1	1055	194.683507505462	0.702807730104
1	1058	195.386315235566	0.78336946327
1	1066	196.402431848793	0.702807730104
1	1074	197.370059699584	0.702807730104
1	1081	198.072867429688	0.75547233825
1	1088	199.76428931065	0.702807730104
1	1095	204.830200788548	0.702807730104
1	1105	206.45770134033	0.702807730104
1	1112	207.601845201827	0.702807730104
1	1119	208.935531450262	0.702807730104
1	1131	209.927530369784	0.702807730104
1	1138	210.630338099888	0.73927180797
1	1148	211.402202437853	0.702807730104
1	1157	213.460368448714	0.702807730104
1	1165	214.753805079407	0.702807730104
1	1173	215.558124422485	0.702807730104
1	1179	216.312202585426	0.702807730104
1	1184	217.495228507021	0.702807730104
1	1191	218.93314997337	0.702807730104
1	1197	221.772190120009	0.702807730104
1	1204	222.82520256412	0.702807730104
1	1207	223.528010294224	0.704351993958
1	1212	224.659222538495	0.702807730104
1	1217	226.261136826872	0.702807730104
1	1224	228.250701090751	0.702807730104
1	1230	229.329487528221	0.702807730104
1	1235	230.928931013916	0.702807730104
1	1240	232.431948772759	0.702807730104
1	1247	233.268722917342	0.702807730104
1	1255	234.429971350737	0.702807730104
1	1260	235.132779080841	0.853063761752
1	1263	235.835586810945	0.868328659518
1	1270	239.961255454698	0.702807730104
1	1284	241.635645633728	0.702807730104
1	1293	242.745288378124	0.702807730104
1	1300	243.528109702588	0.702807730104
1	1310	244.398680986304	0.702807730104
1	1319	245.48273131553	0.702807730104
1	1322	246.185539045634	0.79157372619
1	1327	247.226624307091	0.702807730104
1	1332	248.309403778009	0.702807730104
1	1337	250.166350285241	0.702807730104
1	1346	251.272330821461	0.702807730104
1	1352	251.975138551565	0.87317720397
1	1359	252.677946281669	0.886522151736
1	1365	253.380754011773	0.841910708455
1	1371	255.92698487204	0.702807730104
1	1380	256.659530744166	0.702807730104
1	1386	257.36233847427	0.860531368371
1	1392	258.206597057804	0.702807730104
1	1397	259.376868311113	0.702807730104
1	1402	260.12736970514	0.702807730104
1	1408	262.010014226829	0.702807730104
1	1415	264.389565540096	0.702807730104
1	1421	265.346700130311	0.702807730104
1	1426	267.640106280412	0.702807730104
1	1435	269.551589707191	0.702807730104
1	1445	270.254397437295	0.704229174662
1	1453	271.126593251131	0.702807730104
1	1460	271.911257875118	0.702807730104
1	1463	272.614065605222	0.84292465742
1	1468	274.414503340212	0.702807730104
1	1473	276.538902105466	0.702807730104
1	1480	277.70873532525	0.702807730104
1	1486	278.473800529508	0.702807730104
1	1495	279.329775124165	0.702807730104
1	1502	282.224548562873	0.702807730104
1	1507	283.396726646312	0.702807730104
1	1512	284.479367266632	0.702807730104
1	1525	286.090832789223	0.702807730104
1	1531	286.793640519327	0.850534273332
1	1536	288.300162881671	0.702807730104
1	1541	289.059198549952	0.702807730104
1	1548	289.820003593452	0.702807730104
1	1553	290.522811323556	0.873538010869
1	1559	292.548681710072	0.702807730104
1	1568	297.271484269914	0.702807730104
1	1581	298.422839209725	0.702807730104
1	1589	300.437420537786	0.702807730104
1	1594	301.825901095113	0.702807730104
1	1599	304.039277757341	0.702807730104
1	1604	304.929995985726	0.702807730104
1	1609	307.104301350582	0.702807730104
1	1614	308.015570947447	0.702807730104
1	1621	309.362079238552	0.702807730104
1	1631	310.534100828397	0.702807730104
1	1635	311.236908558501	0.838054031922
1	1642	312.871622020343	0.702807730104
1	1652	314.118067712021	0.702807730104
1	1663	316.454142437532	0.702807730104
1	1667	317.156950167636	0.801135603463
1	1672	317.924652654702	0.702807730104
1	1677	318.708256919693	0.702807730104
1	1684	319.771269130378	0.702807730104
1	1698	320.569312245371	0.702807730104
1	1707	321.277260349972	0.702807730104
1	1714	322.352412949129	0.702807730104
1	1720	324.230997678198	0.702807730104
1	1727	325.313844938762	0.702807730104
1	1737	327.543061091747	0.702807730104
1	1741	328.245868821851	0.721904769786
1	1746	329.923518311191	0.702807730104
1	1756	330.89997143573	0.842141161875
1	1765	332.181997517419	0.702807730104
1	1768	332.884805247523	0.731519161571
1	1773	334.035648091907	0.702807730104
1	1782	336.966415867862	0.702807730104
1	1791	337.859784841778	0.702807730104
1	1797	339.045975834962	0.702807730104
1	1802	340.037714632251	0.702807730104
1	1807	342.640020474852	0.702807730104
1	1816	343.424814332426	0.702807730104
1	1819	344.12762206253	0.873049904941
1	1827	347.132971210652	0.702807730104
1	1839	348.229346366863	0.702807730104
1	1846	348.932154096967	0.732022483988
1	1852	351.014119663967	0.702807730104
1	1859	352.67087032517	0.702807730104
1	1865	353.486821428096	0.702807730104
1	1872	355.543583687984	0.702807730104
1	1877	356.246391418088	0.783215020373
1	1880	356.949199148192	0.796050366419
1	1885	358.609451412693	0.702807730104
1	1890	360.020967741184	0.702807730104
1	1899	361.205329244599	0.702807730104
1	1902	361.908136974703	0.886593683416
1	1910	362.893438118811	0.702807730104
1	1915	363.596245848915	0.775310677896
1	1921	364.704830293227	0.702807730104
1	1930	367.316800746861	0.702807730104
1	1937	368.156253498931	0.702807730104
1	1942	369.016709115236	0.702807730104
1	1947	369.783135341241	0.702807730104
1	1954	371.474733606235	0.702807730104
1	1960	375.877629176976	0.702807730104
1	1965	378.323455801277	0.702807730104
1	1970	381.244109113012	0.702807730104
1	1977	382.157647912336	0.702807730104
1	1987	383.397418153095	0.702807730104
1	1996	385.701672816338	0.702807730104
1	2005	386.404480546442	0.880860860156
1	2010	387.107288276546	0.820845377148
1	2015	388.381846545041	0.702807730104
1	2020	391.931453978415	0.702807730104
1	2027	392.780367269277	0.702807730104
1	2033	393.796289608588	0.702807730104
1	2038	396.236188937643	0.702807730104
1	2045	398.822911018606	0.702807730104
1	2051	399.929491888161	0.702807730104
1	2058	401.471833003341	0.702807730104
1	2066	402.258082737537	0.702807730104
1	2074	404.961625396177	0.702807730104
1	2083	406.372339311988	0.702807730104
1	2095	408.077938213437	0.702807730104
1	2101	408.780745943541	0.854701434914
1	2110	410.43407156482	0.702807730104
1	2113	411.136879294924	0.817571453539
1	2124	412.692978471745	0.702807730104
1	2129	413.395786201849	0.795038274291
1	2134	414.191758131029	0.702807730104
1	2141	415.209181839132	0.702807730104
1	2146	415.911989569236	0.741805313543
1	2156	419.659702878536	0.702807730104
1	2167	421.273641745684	0.702807730104
1	2182	425.302874952615	0.702807730104
1	2191	426.154123384395	0.702807730104
1	2198	427.912105857572	0.702807730104
1	2204	430.051179394875	0.702807730104
1	2209	431.910749790209	0.702807730104
1	2214	434.811157124812	0.702807730104
1	2219	435.991899789059	0.702807730104
1	2224	437.849099319472	0.702807730104
1	2229	439.16925812328	0.702807730104
1	2234	440.101674278233	0.702807730104
1	2241	441.81042180187	0.702807730104
1	2251	442.678673604245	0.702807730104
1	2256	443.381481334349	0.867908909773
1	2263	444.1626805996	0.702807730104
1	2272	444.960271355877	0.702807730104
1	2276	445.663079085981	0.834514990242
1	2281	446.748807589673	0.702807730104
1	2286	447.560944895671	0.702807730104
1	2291	448.882819406694	0.702807730104
1	2300	450.197827563723	0.702807730104
1	2307	451.267374213215	0.702807730104
1	2314	453.086474810112	0.702807730104
1	2317	453.789282540216	0.811271543781
1	2322	456.590525436915	0.702807730104
1	2329	457.518398066599	0.702807730104
1	2334	458.221205796703	0.818919673795
1	2341	458.924013526807	0.760980919105
1	2349	459.626821256911	0.883458044834
1	2356	462.883242588443	0.702807730104
1	2363	463.8721718019	0.702807730104
1	2369	464.851440844689	0.702807730104
1	2378	465.842576696663	0.702807730104
1	2384	466.545384426767	0.856835236953
1	2387	467.248192156871	0.800989367824
1	2392	470.273579841904	0.702807730104
1	2397	472.348317834907	0.702807730104
1	2402	473.656183865805	0.702807730104
1	2407	474.655198917882	0.702807730104
1	2413	476.347967154677	0.702807730104
1	2418	477.913197861021	0.702807730104
1	2423	478.78747002687	0.702807730104
1	2434	481.892183572705	0.702807730104
1	2441	482.594991302809	0.885250664162
1	2446	483.297799032913	0.815700350142
1	2454	484.164641797828	0.702807730104
1	2462	485.872109214489	0.702807730104
1	2468	489.199677544048	0.702807730104
1	2473	490.345517253703	0.702807730104
1	2480	492.171615099021	0.702807730104
1	2488	493.500416432676	0.702807730104
1	2498	494.31478502894	0.702807730104
1	2505	495.128133119676	0.702807730104
1	2512	496.619357504174	0.702807730104
1	2520	498.247607360434	0.702807730104
1	2526	499.768746870595	0.702807730104
1	2531	500.79377902	0.702807730104
1	2538	502.010769505982	0.702807730104
1	2544	502.737292792226	0.702807730104
1	2551	503.88762957168	0.702807730104
1	2554	504.590437301784	0.771306560875
1	2561	505.590496363819	0.702807730104
1	2569	507.150529715659	0.702807730104
1	2575	508.056749409705	0.702807730104
1	2580	509.077592127299	0.702807730104
1	2589	512.095013460417	0.702807730104
1	2595	512.797821190521	0.733957490281
1	2605	513.69027398063	0.702807730104
1	2613	514.393081710734	0.796924430062
1	2619	515.095889440838	0.856889752154
1	2627	516.227350384967	0.702807730104
1	2633	516.971822501229	0.702807730104
1	2640	518.837237657505	0.702807730104
1	2645	519.540045387609	0.876806492032
1	2650	520.242853117713	0.751931024382
1	2655	520.945660847817	0.796656375298
1	2661	521.894030025487	0.702807730104
1	2666	524.135793405133	0.702807730104
1	2673	526.768360123815	0.702807730104
1	2678	527.471167853919	0.72093498792
1	2684	528.492536310214	0.702807730104
1	2689	529.250263857554	0.702807730104
1	2696	531.285343347501	0.702807730104
1	2706	532.686185163069	0.702807730104
1	2723	534.82669841257	0.702807730104
1	2734	535.529506142674	0.830905711185
1	2738	536.232313872778	0.87344519844
1	2745	537.003036401059	0.702807730104
1	2755	538.768174934537	0.702807730104
1	2763	540.007689766729	0.702807730104
1	2768	541.847933211012	0.702807730104
1	2773	542.891765836539	0.702807730104
1	2778	543.776863556128	0.702807730104
1	2783	544.660975570573	0.702807730104
1	2790	546.036241881069	0.702807730104
1	2798	547.250130510335	0.702807730104
1	2806	549.340770222707	0.702807730104
1	2813	550.043577952811	0.879874681107
1	2824	551.283871583068	0.702807730104
1	2832	551.986679313172	0.846181782249
1	2838	552.689487043276	0.80073534949
1	2844	553.769126968466	0.702807730104
1	2853	555.152264403527	0.702807730104
1	2862	555.998894068969	0.702807730104
1	2867	556.701701799073	0.800680405535
1	2875	560.503736838089	0.702807730104
1	2883	561.628917025345	0.702807730104
1	2889	562.501234828953	0.702807730104
1	2896	563.465661238225	0.702807730104
1	2902	564.450050670051	0.702807730104
1	2913	566.306936048639	0.702807730104
1	2923	567.111999644894	0.702807730104
1	2931	568.363088892272	0.702807730104
1	2939	570.082410302937	0.702807730104
1	2947	571.673804279511	0.702807730104
1	2953	574.58344282643	0.702807730104
1	2960	577.698100518276	0.702807730104
1	2968	579.31816154723	0.702807730104
1	2976	580.209736911939	0.702807730104
1	2982	582.330654002129	0.702807730104
1	2987	584.177886121237	0.702807730104
1	2996	585.844191005667	0.702807730104
1	3007	586.643738463233	0.702807730104
1	3011	587.346546193337	0.703924422007
1	3018	589.357205491087	0.702807730104
1	3027	590.060013221191	0.779766585215
1	3032	590.762820951295	0.816313673089
1	3037	592.260367640324	0.702807730104
1	3044	593.551171100813	0.702807730104
1	3052	594.40570009184	0.702807730104
1	3060	597.252938135909	0.702807730104
1	3068	598.225798482285	0.702807730104
1	3071	598.928606212389	0.705451201175
1	3076	600.057259071374	0.702807730104
1	3085	601.598172209932	0.702807730104
1	3094	602.71382901363	0.702807730104
1	3099	603.416636743734	0.712403583381
1	3108	604.119444473838	0.778962338159
1	3118	605.156070382485	0.702807730104
1	3131	606.132523507024	0.852374660472
1	3140	606.835331237128	0.708053718274
1	3148	607.538138967232	0.884358489509
1	3155	608.597947702515	0.702807730104
1	3162	610.027294260576	0.702807730104
1	3168	610.843126246376	0.702807730104
1	3175	614.283908089609	0.702807730104
1	3181	615.016874525111	0.702807730104
1	3190	615.798597392755	0.702807730104
1	3199	616.961073319454	0.702807730104
1	3205	617.723230697802	0.702807730104
1	3212	619.318402149381	0.702807730104
1	3220	621.984005851778	0.702807730104
1	3226	622.791961398517	0.702807730104
1	3233	623.563805975063	0.702807730104
1	3241	625.348382345408	0.702807730104
1	3247	627.177535891132	0.702807730104
1	3256	628.500260266762	0.702807730104
1	3260	629.203067996866	0.766228465456
1	3265	630.063759847853	0.702807730104
1	3276	631.172476475792	0.702807730104
1	3286	632.007287644524	0.702807730104
1	3294	632.990787077997	0.702807730104
1	3302	634.238290195015	0.702807730104
1	3308	635.281576672094	0.702807730104
1	3315	636.064269927616	0.702807730104
1	3318	636.76707765772	0.887424901582
1	3325	638.125839592295	0.702807730104
1	3337	639.255483441374	0.702807730104
1	3345	639.958291171478	0.822231362669
1	3353	641.196184194086	0.702807730104
1	3362	642.524270856355	0.702807730104
1	3368	643.227078586459	0.713078463736
1	3376	645.733016869075	0.702807730104
1	3382	646.665002771066	0.702807730104
1	3387	649.02090738136	0.702807730104
1	3396	652.501981622849	0.702807730104
1	3403	653.382261440391	0.702807730104
1	3408	654.274259084198	0.702807730104
1	3413	655.780427357982	0.702807730104
1	3424	657.235984951917	0.702807730104
1	3433	657.938792682021	0.787811821764
1	3446	659.006243734718	0.702807730104
1	3453	659.709051464822	0.708960417395
1	3463	661.350424360315	0.702807730104
1	3471	662.053232090419	0.848232384485
1	3484	662.871428622694	0.702807730104
1	3493	663.574236352798	0.715030784273
1	3497	664.277044082902	0.846181220441
1	3502	665.197923620807	0.702807730104
1	3510	666.544695980475	0.702807730104
1	3518	668.964665021928	0.702807730104
1	3524	670.277395064043	0.702807730104
1	3529	671.532296670929	0.702807730104
1	3538	672.623757254659	0.702807730104
1	3545	673.735793508577	0.702807730104
1	3552	674.606120258886	0.702807730104
1	3559	675.30892798899	0.792823943072
1	3565	676.011735719094	0.830382203618
1	3573	678.706236688106	0.702807730104
1	3579	680.873371595058	0.702807730104
1	3584	681.751589032465	0.702807730104
1	3589	682.831476546624	0.702807730104
1	3596	684.594492300865	0.702807730104
1	3603	685.297300030969	0.822341781169
1	3610	686.601724624285	0.702807730104
1	3621	688.078150063394	0.702807730104
1	3629	688.780957793498	0.881480595631
1	3643	689.488344109861	0.702807730104
1	3648	690.191151839965	0.737098342681
1	3655	691.822540190138	0.702807730104
1	3665	692.842362467063	0.702807730104
1	3680	693.89271734598	0.702807730104
1	3685	694.595525076084	0.777842009326
1	3691	695.715906076413	0.702807730104
1	3700	696.497492834613	0.702807730104
1	3703	697.200300564717	0.857402319726
1	3711	697.926359954249	0.702807730104
1	3717	699.063159308526	0.702807730104
1	3722	700.312569155807	0.702807730104
1	3733	701.382510710466	0.702807730104
1	3742	702.08531844057	0.801970206641
1	3748	702.788126170674	0.780791167924
1	3754	703.893537912618	0.702807730104
1	3761	704.809914301434	0.702807730104
1	3771	706.677497583991	0.702807730104
1	3780	708.021606457391	0.702807730104
1	3785	708.724414187495	0.793448033761
1	3793	711.260132186647	0.702807730104
1	3799	713.288010491725	0.702807730104
1	3804	714.636543729286	0.702807730104
1	3809	715.672581828691	0.702807730104
1	3816	716.873982308866	0.702807730104
1	3821	717.57679003897	0.883586979934
1	3827	719.15144462354	0.702807730104
1	3834	719.876137814516	0.702807730104
1	3841	720.57894554462	0.723809853195
1	3848	722.728580582888	0.702807730104
1	3859	723.69056781321	0.702807730104
1	3864	724.393375543314	0.745245852516
1	3872	726.20801118773	0.702807730104
1	3878	727.127386939965	0.702807730104
1	3885	728.452114466836	0.702807730104
1	3895	731.085368942199	0.702807730104
1	3902	732.007823609892	0.702807730104
1	3913	733.284087694418	0.702807730104
1	3922	733.986895424522	0.738459305315
1	3929	738.288367001795	0.702807730104
1	3934	739.312181554532	0.702807730104
1	3941	741.525470106514	0.702807730104
1	3949	745.567252674879	0.702807730104
1	3957	746.631237048288	0.702807730104
1	3963	748.155805555109	0.702807730104
1	3968	750.527628898595	0.702807730104
1	3975	751.66425953193	0.702807730104
1	3983	752.863195987665	0.702807730104
1	3995	754.451677179381	0.702807730104
1	4005	756.127810031102	0.702807730104
1	4013	757.185636136587	0.702807730104
1	4019	758.590726339233	0.702807730104
1	4024	759.784984236242	0.702807730104
1	4029	760.773347583763	0.702807730104
1	4036	762.818689301293	0.702807730104
1	4044	765.001480566335	0.702807730104
1	4054	765.778287320194	0.702807730104
1	4063	766.513383576777	0.702807730104
1	4071	768.360244729042	0.702807730104
1	4081	769.445218819418	0.702807730104
1	4087	770.148026549522	0.881993553844
1	4093	772.131399697517	0.702807730104
1	4098	773.119652955708	0.702807730104
1	4103	775.112675720932	0.702807730104
1	4110	777.095854118878	0.702807730104
1	4115	777.798661848982	0.816834589281
1	4120	778.501469579086	0.782068185162
1	4126	779.962687674979	0.702807730104
1	4131	781.593535099155	0.702807730104
1	4138	782.545095308581	0.702807730104
1	4145	783.247903038685	0.732064744733
1	4149	783.950710768789	0.710675157851
1	4154	786.206188851939	0.702807730104
1	4159	787.65729838909	0.702807730104
1	4166	789.390005611267	0.702807730104
1	4176	790.20174009275	0.702807730104
1	4183	791.87387043431	0.702807730104
1	4190	792.722228955074	0.702807730104
1	4196	794.10930236522	0.702807730104
1	4201	796.586124402181	0.702807730104
1	4210	797.501094692713	0.702807730104
1	4218	798.203902422817	0.868976894754
1	4226	799.894595500888	0.702807730104
1	4233	801.159086352329	0.702807730104
1	4241	802.354506518358	0.702807730104
1	4247	803.993854745923	0.702807730104
1	4254	804.919449937359	0.702807730104
1	4257	805.622257667463	0.873231042577
1	4264	806.49901701591	0.702807730104
1	4276	807.297427430732	0.702807730104
1	4283	808.000235160836	0.745865415469
1	4289	810.981713416767	0.702807730104
1	4296	813.615558464575	0.702807730104
1	4303	814.318366194679	0.815290951649
1	4310	816.306002614129	0.702807730104
1	4315	819.227908094833	0.702807730104
1	4320	821.870122043127	0.702807730104
1	4325	822.609088750479	0.702807730104
1	4332	824.466963293832	0.702807730104
1	4338	826.498784128523	0.702807730104
1	4347	827.258574063698	0.702807730104
1	4358	828.584643095267	0.702807730104
1	4365	829.781345559538	0.702807730104
1	4370	831.671668182473	0.702807730104
1	4375	832.605838015099	0.702807730104
1	4380	836.446350239971	0.702807730104
1	4385	838.554848618017	0.702807730104
1	4390	839.398042952004	0.702807730104
1	4395	841.376215152367	0.702807730104
1	4400	843.082549824931	0.702807730104
1	4405	844.002490600154	0.702807730104
1	4412	846.184427843913	0.702807730104
1	4417	846.887235574017	0.774410723357
1	4429	848.411120248843	0.702807730104
1	4437	849.160400216766	0.702807730104
1	4444	849.902203836565	0.702807730104
1	4450	853.527863321893	0.702807730104
1	4459	854.37688604823	0.702807730104
1	4463	855.079693778334	0.727989507024
1	4468	858.006997380976	0.702807730104
1	4475	859.16845004195	0.702807730104
1	4481	862.011836901477	0.702807730104
1	4488	865.434379098132	0.702807730104
1	4493	866.137186828236	0.725799887436
1	4503	866.898897037886	0.702807730104
1	4512	868.28032700087	0.702807730104
1	4517	868.983134730974	0.727992284304
1	4522	869.685942461078	0.865362905055
1	4530	870.661419036333	0.702807730104
1	4536	871.791786187679	0.702807730104
1	4541	872.729022439094	0.702807730104
1	4548	874.062257555743	0.702807730104
1	4555	875.617182078522	0.702807730104
1	4562	876.966336172152	0.702807730104
1	4565	877.669143902256	0.714990879406
1	4576	878.990176269365	0.702807730104
1	4585	879.692983999469	0.725207156034
1	4589	880.395791729573	0.747671418129
1	4596	881.457040675555	0.702807730104
1	4602	882.27622411598	0.702807730104
1	4607	885.881397837279	0.702807730104
1	4614	888.142817556437	0.702807730104
1	4622	889.403683769274	0.702807730104
1	4628	890.115761992403	0.702807730104
1	4635	891.671436981866	0.702807730104
1	4643	892.609672227735	0.702807730104
1	4648	893.312479957839	0.743831164482
1	4656	894.166279830499	0.702807730104
1	4663	894.869087560603	0.717990407501
1	4674	896.474964905767	0.702807730104
1	4681	897.420191751128	0.702807730104
1	4686	898.586414825977	0.702807730104
1	4693	900.252496063857	0.702807730104
1	4701	901.716575789861	0.702807730104
1	4704	902.419383519965	0.722543046052
1	4709	903.123253434589	0.702807730104
1	4714	904.268846030095	0.702807730104
1	4723	905.282301045773	0.702807730104
1	4738	906.735436881059	0.702807730104
1	4747	909.699349980497	0.702807730104
1	4752	910.435609165995	0.702807730104
1	4757	911.169164476778	0.702807730104
1	4764	912.019075741364	0.702807730104
1	4771	912.721883471468	0.774247142578
1	4778	914.911040298363	0.702807730104
1	4783	915.877186701203	0.702807730104
1	4790	917.819461300497	0.702807730104
1	4796	919.221955313353	0.702807730104
1	4801	920.661074342761	0.702807730104
1	4808	921.506302094123	0.702807730104
1	4814	923.564366087676	0.702807730104
1	4823	925.787622414348	0.702807730104
1	4826	926.490430144452	0.765278207736
1	4832	927.998262560373	0.702807730104
1	4841	928.727056450256	0.702807730104
1	4850	929.499360744798	0.702807730104
1	4853	930.202168474902	0.796435402127
1	4858	932.372384553321	0.702807730104
1	4865	933.441895114173	0.702807730104
1	4868	934.144702844277	0.778286216116
1	4873	934.921563293437	0.702807730104
1	4880	936.551979621275	0.702807730104
1	4889	939.302449125721	0.702807730104
1	4895	940.663900076191	0.702807730104
1	4902	941.477038642691	0.702807730104
1	4910	942.537597406606	0.702807730104
1	4918	943.25816523197	0.702807730104
1	4928	945.568706267269	0.702807730104
1	4935	946.429406190826	0.702807730104
1	4944	947.655543693221	0.702807730104
1	4951	948.735626524759	0.702807730104
1	4960	950.246243997702	0.702807730104
1	4967	951.126487667628	0.702807730104
1	4974	952.153933680571	0.702807730104
1	4977	952.856741410675	0.860991730928
1	4982	957.188027704668	0.702807730104
1	4987	958.737999506437	0.702807730104
1	4992	959.549258585049	0.702807730104
1	5001	961.43587931501	0.702807730104
1	5005	962.138687045114	0.84184568076
1	5016	963.035630625331	0.702807730104
1	5024	964.042282727195	0.702807730104
1	5031	965.00929664031	0.702807730104
1	5039	967.249732359313	0.702807730104
1	5045	968.148843069776	0.702807730104
1	5052	968.936494869588	0.702807730104
1	5058	970.065209311804	0.702807730104
1	5063	970.856014957533	0.702807730104
1	5068	971.691531485076	0.702807730104
1	5075	974.534065796823	0.702807730104
1	5083	976.611055658038	0.702807730104
1	5091	977.347778090735	0.702807730104
1	5101	979.10860378074	0.702807730104
1	5108	979.899866712697	0.702807730104
1	5115	981.842931756022	0.702807730104
1	5123	982.917805777637	0.702807730104
1	5129	984.366681114306	0.702807730104
1	5136	986.471982133541	0.702807730104
1	5139	987.174789863645	0.703125974598
1	5146	989.947611147206	0.702807730104
1	5149	990.65041887731	0.860961460779
1	5154	996.571106186518	0.702807730104
1	5163	997.343160565559	0.702807730104
1	5172	999.811470166991	0.702807730104
2	5	0.940013894122	0
2	14	3.255827609449	0
2	24	3.958635339553	0.155355332861
2	34	4.661443069657	0.096450087185
2	40	5.364250799761	0.158187308693
2	47	6.850404208849	0
2	53	9.356679885084	0
2	58	10.158397365964	0
2	67	12.168333279792	0
2	76	14.133260658234	0
2	84	14.918841039618	0
2	87	15.621648769722	0.00468023543
2	92	16.612441523355	0
2	99	18.853585703005	0
2	108	19.556393433109	0.17552137646
2	114	20.259201163213	0.169248978983
2	120	20.962008893317	0.12619941985
2	123	21.664816623421	0.180978367928
2	128	23.356394147978	0
2	135	24.488103327992	0
2	141	25.933175377964	0
2	150	27.305000558417	0
2	157	28.341316135225	0
2	162	29.567698203198	0
2	167	30.597864093037	0
2	174	31.460307400648	0
2	180	32.618088140072	0
2	189	34.070751646209	0
2	192	34.773559376313	0.144287497631
2	204	35.84446221968	0
2	208	36.547269949784	0.064338356684
2	216	39.456223365414	0
2	226	41.085059090014	0
2	229	41.787866820118	0.047378316682
2	243	44.834203829057	0
2	253	45.537011559161	0.021563803924
2	259	46.239819289265	0.140485436576
2	267	47.13712699695	0
2	272	47.839934727054	0.182409799213
2	280	48.953880140583	0
2	296	51.212657570924	0
2	307	51.915465301028	0.108461597688
2	313	52.618273031132	0.081466094815
2	323	53.638298610481	0
2	330	54.561202995551	0
2	337	55.437593911803	0
2	343	56.308376616754	0
2	352	57.176172538163	0
2	359	58.024303591118	0
2	370	59.012017371557	0
2	379	60.716735167499	0
2	386	61.634642574159	0
2	394	63.466931311544	0
2	400	64.191565124649	0
2	405	65.105256799456	0
2	410	66.194883993243	0
2	415	67.235929534331	0
2	424	68.043310616471	0
2	431	68.746118346575	0.102050741086
2	439	71.611950934708	0
2	448	72.804070308841	0
2	455	73.929700977196	0
2	460	74.987404182078	0
2	467	77.80987330851	0
2	473	79.421167437952	0
2	478	80.979974290713	0
2	487	86.498942921227	0
2	496	89.473818517685	0
2	502	90.59653863505	0
2	507	92.058808798068	0
2	514	94.392743403224	0
2	520	95.361450628078	0
2	527	96.845771132829	0
2	532	97.548578862933	0.137332571583
2	537	98.251386593037	0.074294224309
2	545	99.059608922446	0
2	551	99.959718372486	0
2	556	100.899718690237	0
2	563	101.977415741302	0
2	571	102.943864730197	0
2	576	103.646672460301	0.133852711959
2	581	104.349480190405	0.170487087857
2	589	107.499402128297	0
2	592	108.202209858401	0.00073963702
2	597	109.211176981352	0
2	606	110.58115204153	0
2	610	111.283959771634	0.061078542138
2	615	112.141889691144	0
2	622	113.194970866933	0
2	628	114.183782867316	0
2	635	115.023988246932	0
2	643	116.476403224507	0
2	653	117.367933546286	0
2	660	118.07074127639	0.163213355935
2	668	119.799052668632	0
2	675	122.182419836474	0
2	681	124.506687743416	0
2	692	125.270048366505	0
2	696	125.972856096609	0.132669934596
2	702	126.699707007111	0
2	715	129.198217221327	0
2	724	130.42974344447	0
2	732	132.666113195874	0
2	740	133.487896450129	0
2	746	135.825488304704	0
2	753	136.551480160162	0
2	763	137.701053543383	0
2	767	138.403861273487	0.033054141372
2	774	139.874886773223	0
2	780	141.492525810802	0
2	787	145.615340988236	0
2	796	146.31814871834	0.073149879221
2	808	150.779399515773	0
2	814	151.482207245877	0.176156516175
2	822	152.324992196133	0
2	825	153.027799926237	0.063509083495
2	834	153.737414925028	0
2	845	155.095372165162	0
2	851	155.798179895266	0.105358457137
2	859	158.843947413378	0
2	869	159.722541239162	0
2	873	160.425348969266	0.03553376037
2	878	161.140197218413	0
2	883	162.174105214774	0
2	888	166.343335780956	0
2	893	168.477040139479	0
2	900	169.321461533475	0
2	903	170.024269263579	0.183667784686
2	908	172.675655222157	0
2	915	173.413648879976	0
2	921	175.385400858282	0
2	926	176.369712036392	0
2	931	177.378271785132	0
2	936	178.767189765887	0
2	945	179.650260318099	0
2	951	180.353068048203	0.090236498695
2	958	181.055875778307	0.081923554548
2	969	181.775329228703	0
2	977	182.478136958807	0.035971049397
2	985	183.180944688911	0.132236131637
2	992	184.37695077478	0
2	1001	185.746064659944	0
2	1008	187.704944739519	0
2	1015	189.996062661659	0
2	1022	190.698870391763	0.077515361881
2	1031	191.98866001826	0
2	1043	192.864930983331	0
2	1047	193.567738713435	0.181749149185
2	1055	194.683507505462	0
2	1058	195.386315235566	0.080561733166
2	1066	196.402431848793	0
2	1074	197.370059699584	0
2	1081	198.072867429688	0.052664608146
2	1088	199.76428931065	0
2	1095	204.830200788548	0
2	1105	206.45770134033	0
2	1112	207.601845201827	0
2	1119	208.935531450262	0
2	1131	209.927530369784	0
2	1138	210.630338099888	0.036464077866
2	1148	211.402202437853	0
2	1157	213.460368448714	0
2	1165	214.753805079407	0
2	1173	215.558124422485	0
2	1179	216.312202585426	0
2	1184	217.495228507021	0
2	1191	218.93314997337	0
2	1197	221.772190120009	0
2	1204	222.82520256412	0
2	1207	223.528010294224	0.001544263854
2	1212	224.659222538495	0
2	1217	226.261136826872	0
2	1224	228.250701090751	0
2	1230	229.329487528221	0
2	1235	230.928931013916	0
2	1240	232.431948772759	0
2	1247	233.268722917342	0
2	1255	234.429971350737	0
2	1260	235.132779080841	0.150256031648
2	1263	235.835586810945	0.165520929414
2	1270	239.961255454698	0
2	1284	241.635645633728	0
2	1293	242.745288378124	0
2	1300	243.528109702588	0
2	1310	244.398680986304	0
2	1319	245.48273131553	0
2	1322	246.185539045634	0.088765996086
2	1327	247.226624307091	0
2	1332	248.309403778009	0
2	1337	250.166350285241	0
2	1346	251.272330821461	0
2	1352	251.975138551565	0.170369473866
2	1359	252.677946281669	0.183714421632
2	1365	253.380754011773	0.139102978351
2	1371	255.92698487204	0
2	1380	256.659530744166	0
2	1386	257.36233847427	0.157723638267
2	1392	258.206597057804	0
2	1397	259.376868311113	0
2	1402	260.12736970514	0
2	1408	262.010014226829	0
2	1415	264.389565540096	0
2	1421	265.346700130311	0
2	1426	267.640106280412	0
2	1435	269.551589707191	0
2	1445	270.254397437295	0.001421444558
2	1453	271.126593251131	0
2	1460	271.911257875118	0
2	1463	272.614065605222	0.140116927316
2	1468	274.414503340212	0
2	1473	276.538902105466	0
2	1480	277.70873532525	0
2	1486	278.473800529508	0
2	1495	279.329775124165	0
2	1502	282.224548562873	0
2	1507	283.396726646312	0
2	1512	284.479367266632	0
2	1525	286.090832789223	0
2	1531	286.793640519327	0.147726543228
2	1536	288.300162881671	0
2	1541	289.059198549952	0
2	1548	289.820003593452	0
2	1553	290.522811323556	0.170730280765
2	1559	292.548681710072	0
2	1568	297.271484269914	0
2	1581	298.422839209725	0
2	1589	300.437420537786	0
2	1594	301.825901095113	0
2	1599	304.039277757341	0
2	1604	304.929995985726	0
2	1609	307.104301350582	0
2	1614	308.015570947447	0
2	1621	309.362079238552	0
2	1631	310.534100828397	0
2	1635	311.236908558501	0.135246301818
2	1642	312.871622020343	0
2	1652	314.118067712021	0
2	1663	316.454142437532	0
2	1667	317.156950167636	0.098327873359
2	1672	317.924652654702	0
2	1677	318.708256919693	0
2	1684	319.771269130378	0
2	1698	320.569312245371	0
2	1707	321.277260349972	0
2	1714	322.352412949129	0
2	1720	324.230997678198	0
2	1727	325.313844938762	0
2	1737	327.543061091747	0
2	1741	328.245868821851	0.019097039682
2	1746	329.923518311191	0
2	1756	330.89997143573	0.139333431771
2	1765	332.181997517419	0
2	1768	332.884805247523	0.028711431467
2	1773	334.035648091907	0
2	1782	336.966415867862	0
2	1791	337.859784841778	0
2	1797	339.045975834962	0
2	1802	340.037714632251	0
2	1807	342.640020474852	0
2	1816	343.424814332426	0
2	1819	344.12762206253	0.170242174837
2	1827	347.132971210652	0
2	1839	348.229346366863	0
2	1846	348.932154096967	0.029214753884
2	1852	351.014119663967	0
2	1859	352.67087032517	0
2	1865	353.486821428096	0
2	1872	355.543583687984	0
2	1877	356.246391418088	0.080407290269
2	1880	356.949199148192	0.093242636315
2	1885	358.609451412693	0
2	1890	360.020967741184	0
2	1899	361.205329244599	0
2	1902	361.908136974703	0.183785953312
2	1910	362.893438118811	0
2	1915	363.596245848915	0.072502947792
2	1921	364.704830293227	0
2	1930	367.316800746861	0
2	1937	368.156253498931	0
2	1942	369.016709115236	0
2	1947	369.783135341241	0
2	1954	371.474733606235	0
2	1960	375.877629176976	0
2	1965	378.323455801277	0
2	1970	381.244109113012	0
2	1977	382.157647912336	0
2	1987	383.397418153095	0
2	1996	385.701672816338	0
2	2005	386.404480546442	0.178053130052
2	2010	387.107288276546	0.118037647044
2	2015	388.381846545041	0
2	2020	391.931453978415	0
2	2027	392.780367269277	0
2	2033	393.796289608588	0
2	2038	396.236188937643	0
2	2045	398.822911018606	0
2	2051	399.929491888161	0
2	2058	401.471833003341	0
2	2066	402.258082737537	0
2	2074	404.961625396177	0
2	2083	406.372339311988	0
2	2095	408.077938213437	0
2	2101	408.780745943541	0.15189370481
2	2110	410.43407156482	0
2	2113	411.136879294924	0.114763723435
2	2124	412.692978471745	0
2	2129	413.395786201849	0.092230544187
2	2134	414.191758131029	0
2	2141	415.209181839132	0
2	2146	415.911989569236	0.038997583439
2	2156	419.659702878536	0
2	2167	421.273641745684	0
2	2182	425.302874952615	0
2	2191	426.154123384395	0
2	2198	427.912105857572	0
2	2204	430.051179394875	0
2	2209	431.910749790209	0
2	2214	434.811157124812	0
2	2219	435.991899789059	0
2	2224	437.849099319472	0
2	2229	439.16925812328	0
2	2234	440.101674278233	0
2	2241	441.81042180187	0
2	2251	442.678673604245	0
2	2256	443.381481334349	0.165101179669
2	2263	444.1626805996	0
2	2272	444.960271355877	0
2	2276	445.663079085981	0.131707260138
2	2281	446.748807589673	0
2	2286	447.560944895671	0
2	2291	448.882819406694	0
2	2300	450.197827563723	0
2	2307	451.267374213215	0
2	2314	453.086474810112	0
2	2317	453.789282540216	0.108463813677
2	2322	456.590525436915	0
2	2329	457.518398066599	0
2	2334	458.221205796703	0.116111943691
2	2341	458.924013526807	0.058173189001
2	2349	459.626821256911	0.18065031473
2	2356	462.883242588443	0
2	2363	463.8721718019	0
2	2369	464.851440844689	0
2	2378	465.842576696663	0
2	2384	466.545384426767	0.154027506849
2	2387	467.248192156871	0.09818163772
2	2392	470.273579841904	0
2	2397	472.348317834907	0
2	2402	473.656183865805	0
2	2407	474.655198917882	0
2	2413	476.347967154677	0
2	2418	477.913197861021	0
2	2423	478.78747002687	0
2	2434	481.892183572705	0
2	2441	482.594991302809	0.182442934058
2	2446	483.297799032913	0.112892620038
2	2454	484.164641797828	0
2	2462	485.872109214489	0
2	2468	489.199677544048	0
2	2473	490.345517253703	0
2	2480	492.171615099021	0
2	2488	493.500416432676	0
2	2498	494.31478502894	0
2	2505	495.128133119676	0
2	2512	496.619357504174	0
2	2520	498.247607360434	0
2	2526	499.768746870595	0
2	2531	500.79377902	0
2	2538	502.010769505982	0
2	2544	502.737292792226	0
2	2551	503.88762957168	0
2	2554	504.590437301784	0.068498830771
2	2561	505.590496363819	0
2	2569	507.150529715659	0
2	2575	508.056749409705	0
2	2580	509.077592127299	0
2	2589	512.095013460417	0
2	2595	512.797821190521	0.031149760177
2	2605	513.69027398063	0
2	2613	514.393081710734	0.094116699958
2	2619	515.095889440838	0.15408202205
2	2627	516.227350384967	0
2	2633	516.971822501229	0
2	2640	518.837237657505	0
2	2645	519.540045387609	0.173998761928
2	2650	520.242853117713	0.049123294278
2	2655	520.945660847817	0.093848645194
2	2661	521.894030025487	0
2	2666	524.135793405133	0
2	2673	526.768360123815	0
2	2678	527.471167853919	0.018127257816
2	2684	528.492536310214	0
2	2689	529.250263857554	0
2	2696	531.285343347501	0
2	2706	532.686185163069	0
2	2723	534.82669841257	0
2	2734	535.529506142674	0.128097981081
2	2738	536.232313872778	0.170637468336
2	2745	537.003036401059	0
2	2755	538.768174934537	0
2	2763	540.007689766729	0
2	2768	541.847933211012	0
2	2773	542.891765836539	0
2	2778	543.776863556128	0
2	2783	544.660975570573	0
2	2790	546.036241881069	0
2	2798	547.250130510335	0
2	2806	549.340770222707	0
2	2813	550.043577952811	0.177066951003
2	2824	551.283871583068	0
2	2832	551.986679313172	0.143374052145
2	2838	552.689487043276	0.097927619386
2	2844	553.769126968466	0
2	2853	555.152264403527	0
2	2862	555.998894068969	0
2	2867	556.701701799073	0.097872675431
2	2875	560.503736838089	0
2	2883	561.628917025345	0
2	2889	562.501234828953	0
2	2896	563.465661238225	0
2	2902	564.450050670051	0
2	2913	566.306936048639	0
2	2923	567.111999644894	0
2	2931	568.363088892272	0
2	2939	570.082410302937	0
2	2947	571.673804279511	0
2	2953	574.58344282643	0
2	2960	577.698100518276	0
2	2968	579.31816154723	0
2	2976	580.209736911939	0
2	2982	582.330654002129	0
2	2987	584.177886121237	0
2	2996	585.844191005667	0
2	3007	586.643738463233	0
2	3011	587.346546193337	0.001116691903
2	3018	589.357205491087	0
2	3027	590.060013221191	0.076958855111
2	3032	590.762820951295	0.113505942985
2	3037	592.260367640324	0
2	3044	593.551171100813	0
2	3052	594.40570009184	0
2	3060	597.252938135909	0
2	3068	598.225798482285	0
2	3071	598.928606212389	0.002643471071
2	3076	600.057259071374	0
2	3085	601.598172209932	0
2	3094	602.71382901363	0
2	3099	603.416636743734	0.009595853277
2	3108	604.119444473838	0.076154608055
2	3118	605.156070382485	0
2	3131	606.132523507024	0.149566930368
2	3140	606.835331237128	0.00524598817
2	3148	607.538138967232	0.181550759405
2	3155	608.597947702515	0
2	3162	610.027294260576	0
2	3168	610.843126246376	0
2	3175	614.283908089609	0
2	3181	615.016874525111	0
2	3190	615.798597392755	0
2	3199	616.961073319454	0
2	3205	617.723230697802	0
2	3212	619.318402149381	0
2	3220	621.984005851778	0
2	3226	622.791961398517	0
2	3233	623.563805975063	0
2	3241	625.348382345408	0
2	3247	627.177535891132	0
2	3256	628.500260266762	0
2	3260	629.203067996866	0.063420735352
2	3265	630.063759847853	0
2	3276	631.172476475792	0
2	3286	632.007287644524	0
2	3294	632.990787077997	0
2	3302	634.238290195015	0
2	3308	635.281576672094	0
2	3315	636.064269927616	0
2	3318	636.76707765772	0.184617171478
2	3325	638.125839592295	0
2	3337	639.255483441374	0
2	3345	639.958291171478	0.119423632565
2	3353	641.196184194086	0
2	3362	642.524270856355	0
2	3368	643.227078586459	0.010270733632
2	3376	645.733016869075	0
2	3382	646.665002771066	0
2	3387	649.02090738136	0
2	3396	652.501981622849	0
2	3403	653.382261440391	0
2	3408	654.274259084198	0
2	3413	655.780427357982	0
2	3424	657.235984951917	0
2	3433	657.938792682021	0.08500409166
2	3446	659.006243734718	0
2	3453	659.709051464822	0.006152687291
2	3463	661.350424360315	0
2	3471	662.053232090419	0.145424654381
2	3484	662.871428622694	0
2	3493	663.574236352798	0.012223054169
2	3497	664.277044082902	0.143373490337
2	3502	665.197923620807	0
2	3510	666.544695980475	0
2	3518	668.964665021928	0
2	3524	670.277395064043	0
2	3529	671.532296670929	0
2	3538	672.623757254659	0
2	3545	673.735793508577	0
2	3552	674.606120258886	0
2	3559	675.30892798899	0.090016212968
2	3565	676.011735719094	0.127574473514
2	3573	678.706236688106	0
2	3579	680.873371595058	0
2	3584	681.751589032465	0
2	3589	682.831476546624	0
2	3596	684.594492300865	0
2	3603	685.297300030969	0.119534051065
2	3610	686.601724624285	0
2	3621	688.078150063394	0
2	3629	688.780957793498	0.178672865527
2	3643	689.488344109861	0
2	3648	690.191151839965	0.034290612577
2	3655	691.822540190138	0
2	3665	692.842362467063	0
2	3680	693.89271734598	0
2	3685	694.595525076084	0.075034279222
2	3691	695.715906076413	0
2	3700	696.497492834613	0
2	3703	697.200300564717	0.154594589622
2	3711	697.926359954249	0
2	3717	699.063159308526	0
2	3722	700.312569155807	0
2	3733	701.382510710466	0
2	3742	702.08531844057	0.099162476537
2	3748	702.788126170674	0.07798343782
2	3754	703.893537912618	0
2	3761	704.809914301434	0
2	3771	706.677497583991	0
2	3780	708.021606457391	0
2	3785	708.724414187495	0.090640303657
2	3793	711.260132186647	0
2	3799	713.288010491725	0
2	3804	714.636543729286	0
2	3809	715.672581828691	0
2	3816	716.873982308866	0
2	3821	717.57679003897	0.18077924983
2	3827	719.15144462354	0
2	3834	719.876137814516	0
2	3841	720.57894554462	0.021002123091
2	3848	722.728580582888	0
2	3859	723.69056781321	0
2	3864	724.393375543314	0.042438122412
2	3872	726.20801118773	0
2	3878	727.127386939965	0
2	3885	728.452114466836	0
2	3895	731.085368942199	0
2	3902	732.007823609892	0
2	3913	733.284087694418	0
2	3922	733.986895424522	0.035651575211
2	3929	738.288367001795	0
2	3934	739.312181554532	0
2	3941	741.525470106514	0
2	3949	745.567252674879	0
2	3957	746.631237048288	0
2	3963	748.155805555109	0
2	3968	750.527628898595	0
2	3975	751.66425953193	0
2	3983	752.863195987665	0
2	3995	754.451677179381	0
2	4005	756.127810031102	0
2	4013	757.185636136587	0
2	4019	758.590726339233	0
2	4024	759.784984236242	0
2	4029	760.773347583763	0
2	4036	762.818689301293	0
2	4044	765.001480566335	0
2	4054	765.778287320194	0
2	4063	766.513383576777	0
2	4071	768.360244729042	0
2	4081	769.445218819418	0
2	4087	770.148026549522	0.17918582374
2	4093	772.131399697517	0
2	4098	773.119652955708	0
2	4103	775.112675720932	0
2	4110	777.095854118878	0
2	4115	777.798661848982	0.114026859177
2	4120	778.501469579086	0.079260455058
2	4126	779.962687674979	0
2	4131	781.593535099155	0
2	4138	782.545095308581	0
2	4145	783.247903038685	0.029257014629
2	4149	783.950710768789	0.007867427747
2	4154	786.206188851939	0
2	4159	787.65729838909	0
2	4166	789.390005611267	0
2	4176	790.20174009275	0
2	4183	791.87387043431	0
[...]
8	950	180.353068048203	0.081923554548
8	957	181.055875778307	0.440315540426
8	959	181.055875778307	0.305493864775
8	968	181.775329228703	0.217079928917
8	970	181.775329228703	0.035971049397
8	976	182.478136958807	0.486517443319
8	978	182.478136958807	0.132236131637
8	984	183.180944688911	0.519782310275
8	986	183.180944688911	0.378682325509
8	1000	185.746064659944	0.574509141394
8	1002	185.746064659944	0.457223786899
8	1014	189.996062661659	0.077515361881
8	1021	190.698870391763	0.644419495334
8	1023	190.698870391763	0.501127872946
8	1030	191.98866001826	0.50049745747
8	1042	192.864930983331	0.66224221964
8	1044	192.864930983331	0.181749149185
8	1046	193.567738713435	0.8731768584
8	1054	194.683507505462	0.080561733166
8	1065	196.402431848793	0.354640076237
8	1073	197.370059699584	0.052664608146
8	1080	198.072867429688	0.57216649363
8	1082	198.072867429688	0.459150662371
8	1094	204.830200788548	0.696185392379
8	1104	206.45770134033	0.585639250465
8	1106	206.45770134033	0.379860104743
8	1118	208.935531450262	0.362859951859
8	1130	209.927530369784	0.60156756227
8	1132	209.927530369784	0.480068926704
8	1133	209.927530369784	0.036464077866
8	1137	210.630338099888	0.196767719148
8	1147	211.402202437853	0.588346440207
8	1149	211.402202437853	0.359932348732
8	1156	213.460368448714	0.572978608695
8	1164	214.753805079407	0.42271717731
8	1172	215.558124422485	0.448312010166
8	1190	218.93314997337	0.372426243406
8	1203	222.82520256412	0.001544263854
8	1223	228.250701090751	0.190309377998
8	1246	233.268722917342	0.249299060807
8	1254	234.429971350737	0.150256031648
8	1259	235.132779080841	0.165520929414
8	1269	239.961255454698	0.598388563897
8	1283	241.635645633728	0.602570018351
8	1285	241.635645633728	0.569535034466
8	1286	241.635645633728	0.375354576982
8	1287	241.635645633728	0.256893655171
8	1299	243.528109702588	0.577536620813
8	1309	244.398680986304	0.343142122358
8	1311	244.398680986304	0.230247596331
8	1318	245.48273131553	0.088765996086
8	1345	251.272330821461	0.356482578151
8	1347	251.272330821461	0.170369473866
8	1351	251.975138551565	0.183714421632
8	1358	252.677946281669	0.40087843534
8	1360	252.677946281669	0.139102978351
8	1364	253.380754011773	0.206324781003
8	1379	256.659530744166	0.272468422719
8	1381	256.659530744166	0.157723638267
8	1385	257.36233847427	0.582215423538
8	1414	264.389565540096	0.649015446427
8	1434	269.551589707191	0.596485640573
8	1436	269.551589707191	0.001421444558
8	1444	270.254397437295	0.56786715362
8	1446	270.254397437295	0.453897336182
8	1447	270.254397437295	0.206186961175
8	1459	271.911257875118	0.140116927316
8	1479	277.70873532525	0.373087374681
8	1494	279.329775124165	0.693048625727
8	1496	279.329775124165	0.582215973804
8	1524	286.090832789223	0.344115094763
8	1526	286.090832789223	0.279965210002
8	1527	286.090832789223	0.235685133078
8	1528	286.090832789223	0.147726543228
8	1547	289.820003593452	0.170730280765
8	1552	290.522811323556	0.650812890162
8	1567	297.271484269914	0.394730172171
8	1569	297.271484269914	0.331981197716
8	1580	298.422839209725	0.627228121198
8	1582	298.422839209725	0.299187078691
8	1583	298.422839209725	0.280267342236
8	1620	309.362079238552	0.550806507373
8	1630	310.534100828397	0.361904003118
8	1632	310.534100828397	0.135246301818
8	1641	312.871622020343	0.410190144106
8	1651	314.118067712021	0.629181662246
8	1653	314.118067712021	0.389180310243
8	1662	316.454142437532	0.210435771514
8	1664	316.454142437532	0.098327873359
8	1683	319.771269130378	0.603302908331
8	1697	320.569312245371	0.613049169805
8	1699	320.569312245371	0.574327604371
8	1700	320.569312245371	0.415805024617
8	1701	320.569312245371	0.292860442912
8	1713	322.352412949129	0.607622721844
8	1726	325.313844938762	0.640769988652
8	1736	327.543061091747	0.562511396707
8	1738	327.543061091747	0.019097039682
8	1751	330.197163705626	0.139333431771
8	1755	330.89997143573	0.750995166891
8	1757	330.89997143573	0.365512442098
8	1764	332.181997517419	0.028711431467
8	1781	336.966415867862	0.28329522105
8	1783	336.966415867862	0.278499501354
8	1790	337.859784841778	0.672766584376
8	1815	343.424814332426	0.170242174837
8	1818	344.12762206253	0.757077111243
8	1826	347.132971210652	0.340195954754
8	1838	348.229346366863	0.647491856808
8	1840	348.229346366863	0.31338992898
8	1841	348.229346366863	0.029214753884
8	1845	348.932154096967	0.206675643415
8	1858	352.67087032517	0.584351078243
8	1871	355.543583687984	0.080407290269
8	1876	356.246391418088	0.093242636315
8	1898	361.205329244599	0.183785953312
8	1901	361.908136974703	0.862993866481
8	1909	362.893438118811	0.072502947792
8	1914	363.596245848915	0.630970543535
8	1929	367.316800746861	0.36217246252
8	1931	367.316800746861	0.228626654921
8	1953	371.474733606235	0.321108634454
8	1976	382.157647912336	0.286950519504
8	1986	383.397418153095	0.408803759384
8	1988	383.397418153095	0.197800393868
8	1995	385.701672816338	0.178053130052
8	2004	386.404480546442	0.41398784401
8	2006	386.404480546442	0.28269178792
8	2007	386.404480546442	0.118037647044
8	2026	392.780367269277	0.588693469315
8	2044	398.822911018606	0.307907688235
8	2057	401.471833003341	0.54955151642
8	2065	402.258082737537	0.609075737551
8	2075	405.235270790612	0.433412048326
8	2082	406.372339311988	0.443599631396
8	2094	408.077938213437	0.560958824601
8	2096	408.077938213437	0.15189370481
8	2100	408.780745943541	0.780995872159
8	2102	408.780745943541	0.575335002882
8	2109	410.43407156482	0.114763723435
8	2123	412.692978471745	0.372557169321
8	2125	412.692978471745	0.355306289283
8	2126	412.692978471745	0.092230544187
8	2140	415.209181839132	0.038997583439
8	2145	415.911989569236	0.601377641158
8	2155	419.659702878536	0.505660065239
8	2157	419.659702878536	0.444993188395
8	2166	421.273641745684	0.693931263081
8	2168	421.273641745684	0.578585225078
8	2181	425.302874952615	0.552087261392
8	2183	425.302874952615	0.326624228477
8	2184	425.302874952615	0.320286659389
8	2185	425.302874952615	0.29645121365
8	2197	427.912105857572	0.343158341634
8	2240	441.81042180187	0.464190709432
8	2250	442.678673604245	0.165101179669
8	2255	443.381481334349	0.740716836796
8	2257	443.381481334349	0.354584932939
8	2271	444.960271355877	0.460011633885
8	2273	444.960271355877	0.131707260138
8	2299	450.197827563723	0.442714118942
8	2301	450.197827563723	0.251054382823
8	2313	453.086474810112	0.108463813677
8	2328	457.518398066599	0.116111943691
8	2333	458.221205796703	0.058173189001
8	2340	458.924013526807	0.35906484422
8	2342	458.924013526807	0.18065031473
8	2348	459.626821256911	0.673973554923
8	2350	459.626821256911	0.595747244977
8	2362	463.8721718019	0.247196576306
8	2377	465.842576696663	0.213138111946
8	2379	465.842576696663	0.154027506849
8	2383	466.545384426767	0.09818163772
8	2433	481.892183572705	0.389330937199
8	2435	481.892183572705	0.354888613977
8	2436	481.892183572705	0.182442934058
8	2440	482.594991302809	0.112892620038
8	2445	483.297799032913	0.399695494569
8	2453	484.164641797828	0.516743372976
8	2461	485.872109214489	0.293346850662
8	2479	492.171615099021	0.462747946902
8	2487	493.500416432676	0.585153005522
8	2497	494.31478502894	0.476175656883
8	2499	494.31478502894	0.226030987256
8	2511	496.619357504174	0.2334400677
8	2519	498.247607360434	0.190810491729
8	2537	502.010769505982	0.248575420399
8	2550	503.88762957168	0.068498830771
8	2560	505.590496363819	0.271134458047
8	2568	507.150529715659	0.390227265965
8	2588	512.095013460417	0.426415109784
8	2590	512.095013460417	0.031149760177
8	2594	512.797821190521	0.390624403611
8	2604	513.69027398063	0.284208373739
8	2606	513.69027398063	0.094116699958
8	2612	514.393081710734	0.542873276249
8	2614	514.393081710734	0.15408202205
8	2618	515.095889440838	0.538433358218
8	2626	516.227350384967	0.346941689283
8	2639	518.837237657505	0.173998761928
8	2644	519.540045387609	0.049123294278
8	2649	520.242853117713	0.093848645194
8	2654	520.945660847817	0.444453683117
8	2672	526.768360123815	0.018127257816
8	2677	527.471167853919	0.336069994936
8	2695	531.285343347501	0.602161983801
8	2705	532.686185163069	0.517869162263
8	2707	532.686185163069	0.398349216531
8	2722	534.82669841257	0.630054428782
8	2724	534.82669841257	0.375512947433
8	2725	534.82669841257	0.359362111648
8	2726	534.82669841257	0.246836458756
8	2727	534.82669841257	0.128097981081
8	2733	535.529506142674	0.561870465832
8	2735	535.529506142674	0.170637468336
8	2744	537.003036401059	0.521157667761
8	2756	539.041820328972	0.784749375116
8	2757	539.041820328972	0.621771453746
8	2789	546.036241881069	0.435918102277
8	2797	547.250130510335	0.343704853487
8	2805	549.340770222707	0.177066951003
8	2812	550.043577952811	0.542554027102
8	2814	550.043577952811	0.370693221939
8	2823	551.283871583068	0.268858604725
8	2825	551.283871583068	0.143374052145
8	2831	551.986679313172	0.25143312777
8	2833	551.986679313172	0.097927619386
8	2837	552.689487043276	0.225098217303
8	2852	555.152264403527	0.408514238692
8	2854	555.152264403527	0.218390952037
8	2861	555.998894068969	0.097872675431
8	2866	556.701701799073	0.625932576969
8	2874	560.503736838089	0.437517148195
8	2882	561.628917025345	0.553312355905
8	2895	563.465661238225	0.549763046677
8	2912	566.306936048639	0.685519377489
8	2914	566.306936048639	0.363320169375
8	2915	566.306936048639	0.355193293343
8	2922	567.111999644894	0.49981329495
8	2930	568.363088892272	0.317311469334
8	2938	570.082410302937	0.228296770621
8	2946	571.673804279511	0.406833170149
8	2959	577.698100518276	0.400966415319
8	2967	579.31816154723	0.573099969174
8	2975	580.209736911939	0.45770801477
8	2995	585.844191005667	0.627365784896
8	2997	585.844191005667	0.545414878218
8	3006	586.643738463233	0.403088127427
8	3008	586.643738463233	0.001116691903
8	3017	589.357205491087	0.076958855111
8	3026	590.060013221191	0.564957333163
8	3028	590.060013221191	0.536590520904
8	3029	590.060013221191	0.113505942985
8	3043	593.551171100813	0.481490319132
8	3051	594.40570009184	0.419739374497
8	3059	597.252938135909	0.559712047583
8	3067	598.225798482285	0.002643471071
8	3084	601.598172209932	0.331974022528
8	3086	601.598172209932	0.213401377538
8	3093	602.71382901363	0.009595853277
8	3098	603.416636743734	0.076154608055
8	3107	604.119444473838	0.602601079327
8	3109	604.119444473838	0.296810812232
8	3110	604.119444473838	0.24020387916
8	3121	605.42971577692	0.342311766659
8	3122	605.42971577692	0.149566930368
8	3130	606.132523507024	0.700227583343
8	3132	606.132523507024	0.518765138787
8	3133	606.132523507024	0.00524598817
8	3139	606.835331237128	0.22421550652
8	3141	606.835331237128	0.181550759405
8	3147	607.538138967232	0.50055045877
8	3149	607.538138967232	0.281181057014
8	3161	610.027294260576	0.245191393757
8	3174	614.283908089609	0.269875806355
8	3189	615.798597392755	0.545113515329
8	3191	615.798597392755	0.246791709917
8	3198	616.961073319454	0.646141521584
8	3211	619.318402149381	0.32126396455
8	3219	621.984005851778	0.21516977676
8	3232	623.563805975063	0.496068925932
8	3240	625.348382345408	0.678038640216
8	3255	628.500260266762	0.326077709555
8	3257	628.500260266762	0.063420735352
8	3275	631.172476475792	0.674685427384
8	3277	631.172476475792	0.551630304533
8	3278	631.172476475792	0.240856261307
8	3285	632.007287644524	0.650378851259
8	3293	632.990787077997	0.236528098142
8	3301	634.238290195015	0.528623817693
8	3314	636.064269927616	0.184617171478
8	3324	638.125839592295	0.520353677171
8	3336	639.255483441374	0.653443523727
8	3338	639.255483441374	0.119423632565
8	3344	639.958291171478	0.762346710781
8	3346	639.958291171478	0.676457475275
8	3347	639.958291171478	0.419018409387
8	3361	642.524270856355	0.593836746488
8	3363	642.524270856355	0.010270733632
8	3367	643.227078586459	0.233876366937
8	3375	645.733016869075	0.310281347719
8	3395	652.501981622849	0.506046865585
8	3397	652.501981622849	0.491505058388
8	3423	657.235984951917	0.279835522782
8	3425	657.235984951917	0.201603578317
8	3426	657.235984951917	0.08500409166
8	3432	657.938792682021	0.665934784924
8	3434	657.938792682021	0.464041423215
8	3445	659.006243734718	0.321796213715
8	3447	659.006243734718	0.201478638347
8	3448	659.006243734718	0.006152687291
8	3452	659.709051464822	0.309535041235
8	3462	661.350424360315	0.456375227718
8	3464	661.350424360315	0.145424654381
8	3470	662.053232090419	0.353447407353
8	3472	662.053232090419	0.213617321173
8	3483	662.871428622694	0.205551245758
8	3485	662.871428622694	0.198360753126
8	3486	662.871428622694	0.012223054169
8	3492	663.574236352798	0.443497783525
8	3494	663.574236352798	0.143373490337
8	3509	666.544695980475	0.573691586699
8	3517	668.964665021928	0.377090076318
8	3537	672.623757254659	0.656061986166
8	3539	672.623757254659	0.276499449021
8	3551	674.606120258886	0.090016212968
8	3558	675.30892798899	0.285845487868
8	3560	675.30892798899	0.127574473514
8	3564	676.011735719094	0.53006079234
8	3572	678.706236688106	0.683345465721
8	3595	684.594492300865	0.119534051065
8	3602	685.297300030969	0.625059956069
8	3604	685.297300030969	0.612424573083
8	3620	688.078150063394	0.4387099654
8	3622	688.078150063394	0.178672865527
8	3628	688.780957793498	0.753056547401
8	3630	688.780957793498	0.535650658647
8	3631	688.780957793498	0.42696511015
8	3642	689.488344109861	0.235872181293
8	3644	689.488344109861	0.231963482084
8	3645	689.488344109861	0.034290612577
8	3654	691.822540190138	0.264871812326
8	3664	692.842362467063	0.652343437621
8	3666	692.842362467063	0.275127546112
8	3679	693.89271734598	0.602167344353
8	3681	693.89271734598	0.423248216946
8	3682	693.89271734598	0.075034279222
8	3684	694.595525076084	0.752208519651
8	3699	696.497492834613	0.154594589622
8	3702	697.200300564717	0.819705066159
8	3710	697.926359954249	0.615816947089
8	3732	701.382510710466	0.632045951413
8	3734	701.382510710466	0.277467327863
8	3735	701.382510710466	0.099162476537
8	3741	702.08531844057	0.442256935544
8	3743	702.08531844057	0.07798343782
8	3747	702.788126170674	0.504543119267
8	3760	704.809914301434	0.619985332869
8	3770	706.677497583991	0.452408106284
8	3772	706.677497583991	0.362404539382
8	3779	708.021606457391	0.090640303657
8	3784	708.724414187495	0.499093927317
8	3792	711.260132186647	0.487755511282
8	3815	716.873982308866	0.18077924983
8	3820	717.57679003897	0.19169768255
8	3833	719.876137814516	0.021002123091
8	3840	720.57894554462	0.531715228438
8	3842	720.57894554462	0.373061826927
8	3858	723.69056781321	0.557016847137
8	3860	723.69056781321	0.385464263995
8	3861	723.69056781321	0.042438122412
8	3871	726.20801118773	0.669099542316
8	3884	728.452114466836	0.582277073671
8	3894	731.085368942199	0.681883629537
8	3896	731.085368942199	0.445935529202
8	3912	733.284087694418	0.390942912937
8	3914	733.284087694418	0.363265110282
8	3915	733.284087694418	0.035651575211
8	3921	733.986895424522	0.47022569653
8	3923	733.986895424522	0.371509539144
8	3940	741.525470106514	0.392554532306
8	3948	745.567252674879	0.691428046741
8	3956	746.631237048288	0.380398601001
8	3974	751.66425953193	0.267656158058
8	3982	752.863195987665	0.251858258109
8	3994	754.451677179381	0.565179179424
8	3996	754.451677179381	0.401725316063
8	3997	754.451677179381	0.313018240949
8	4004	756.127810031102	0.347999754024
8	4012	757.185636136587	0.327347104266
8	4035	762.818689301293	0.341648849503
8	4043	765.001480566335	0.311978714651
8	4053	765.778287320194	0.558045663716
8	4055	765.778287320194	0.38273038375
8	4062	766.513383576777	0.614974201907
8	4070	768.360244729042	0.578247567254
8	4080	769.445218819418	0.207454285524
8	4082	769.445218819418	0.17918582374
8	4086	770.148026549522	0.244159262156
8	4109	777.095854118878	0.114026859177
8	4114	777.798661848982	0.079260455058
8	4119	778.501469579086	0.213800658461
8	4137	782.545095308581	0.029257014629
8	4144	783.247903038685	0.480047239602
8	4146	783.247903038685	0.007867427747
8	4165	789.390005611267	0.636312873695
8	4175	790.20174009275	0.228762608979
8	4177	790.20174009275	0.223988578625
8	4189	792.722228955074	0.335616075759
8	4209	797.501094692713	0.680866827432
8	4211	797.501094692713	0.16616916465
8	4219	798.477547817252	0.865470415385
8	4220	798.477547817252	0.771180905374
8	4232	801.159086352329	0.245681420426
8	4240	802.354506518358	0.471324845342
8	4253	804.919449937359	0.170423312473
8	4263	806.49901701591	0.470672585073
8	4275	807.297427430732	0.471884141001
8	4277	807.297427430732	0.411067534194
8	4278	807.297427430732	0.043057685365
8	4282	808.000235160836	0.348293327762
8	4295	813.615558464575	0.112483221545
8	4302	814.318366194679	0.624285041751
8	4304	814.318366194679	0.449063897968
8	4331	824.466963293832	0.60948174913
8	4346	827.258574063698	0.66314038418
8	4348	827.258574063698	0.258318677426
8	4357	828.584643095267	0.390207504697
8	4359	828.584643095267	0.349771532427
8	4411	846.184427843913	0.071602993253
8	4416	846.887235574017	0.378442848006
8	4428	848.411120248843	0.584015168488
8	4430	848.411120248843	0.218044714767
8	4431	848.411120248843	0.189934581296
8	4443	849.902203836565	0.414129657564
8	4458	854.37688604823	0.202092845383
8	4460	854.37688604823	0.02518177692
8	4474	859.16845004195	0.572777836636
8	4487	865.434379098132	0.022992157332
8	4492	866.137186828236	0.449439144377
8	4502	866.898897037886	0.366538295446
8	4504	866.898897037886	0.268114911693
8	4511	868.28032700087	0.0251845542
8	4516	868.983134730974	0.162555174951
8	4521	869.685942461078	0.464895774914
8	4529	870.661419036333	0.225590340899
8	4549	874.335902950178	0.906723544866
8	4561	876.966336172152	0.012183149302
8	4575	878.990176269365	0.685326889049
8	4577	878.990176269365	0.336626041322
8	4578	878.990176269365	0.02239942593
8	4584	879.692983999469	0.292324585734
8	4586	879.692983999469	0.044863688025
8	4595	881.457040675555	0.448003035046
8	4613	888.142817556437	0.391433716521
8	4621	889.403683769274	0.532698234312
8	4634	891.671436981866	0.260072643143
8	4642	892.609672227735	0.041023434378
8	4647	893.312479957839	0.674293226267
8	4655	894.166279830499	0.015182677397
8	4662	894.869087560603	0.325328075412
8	4664	894.869087560603	0.313536550943
8	4673	896.474964905767	0.535484153487
8	4675	896.474964905767	0.187252996414
8	4692	900.252496063857	0.556861100414
8	4700	901.716575789861	0.019735315948
8	4722	905.282301045773	0.427268376082
8	4724	905.282301045773	0.397512928491
8	4737	906.735436881059	0.607716699076
8	4739	906.735436881059	0.550490302914
8	4740	906.735436881059	0.374284582781
8	4741	906.735436881059	0.307708700284
8	4763	912.019075741364	0.071439412474
8	4770	912.721883471468	0.615740613746
8	4772	912.721883471468	0.189051537876
8	4789	917.819461300497	0.214530429889
8	4807	921.506302094123	0.4086632524
8	4822	925.787622414348	0.062470477632
8	4825	926.490430144452	0.759247455211
8	4840	928.727056450256	0.619921709501
8	4842	928.727056450256	0.364814646542
8	4849	929.499360744798	0.093627672023
8	4864	933.441895114173	0.075478486012
8	4881	936.82562501571	0.368318482322
8	4888	939.302449125721	0.204760169573
8	4901	941.477038642691	0.297279118326
8	4909	942.537597406606	0.67183210458
8	4917	943.25816523197	0.464878888382
8	4927	945.568706267269	0.574457964438
8	4929	945.568706267269	0.317885973461
8	4943	947.655543693221	0.667086665279
8	4945	947.655543693221	0.390193190765
8	4959	950.246243997702	0.561179060444
8	4961	950.246243997702	0.441727044766
8	4973	952.153933680571	0.158184000824
8	5000	961.43587931501	0.259566615796
8	5002	961.43587931501	0.139037950656
8	5015	963.035630625331	0.466048935554
8	5017	963.035630625331	0.393408453772
8	5018	963.035630625331	0.266659159432
8	5030	965.00929664031	0.404750835139
8	5038	967.249732359313	0.418847577352
8	5051	968.936494869588	0.598927378821
8	5074	974.534065796823	0.556725986119
8	5082	976.611055658038	0.507601035099
8	5090	977.347778090735	0.414419495443
8	5100	979.10860378074	0.402371377983
8	5102	979.10860378074	0.274089319718
8	5114	981.842931756022	0.381884843736
8	5122	982.917805777637	0.201116897267
8	5135	986.471982133541	0.000318244494
8	5145	989.947611147206	0.158153730675
8	5162	997.343160565559	0.424807029955
8	5164	997.343160565559	0.231812841027
8	5171	999.811470166991	0.065465124124

