version 2
run General-119-20240201-11:04:19-40057
attr configname General
attr datetime 20240201-11:04:19
attr experiment General
attr inifile main.ini
attr iterationvars "$0=2.0, $1=3.5, $2=70"
attr iterationvarsf 2.0,3.5,70-
attr measurement "$0=2.0, $1=3.5, $2=70"
attr network Rete
attr processid 40057
attr repetition 19
attr replication #19
attr resultdir results
attr runnumber 119
attr seedset 119
param Rete.lambda 2.0
param Rete.a 0.3s
param Rete.b 3.5s
param Rete.c 0.1s
param Rete.d 0.3s
param Rete.mu 3.0
param Rete.source2.interArrivalTime exponential(1s/lambda)
param Rete.source2.jobServiceTime exponential(1s/mu)
param Rete.source2.deadline uniform(a,b)
param Rete.server2.j 70
param Rete.server2.V uniform(c,d)

vector 0 Rete.passiveQueue queueLength:vector ETV
attr interpolationmode sample-hold
attr title "queue length, vector"
vector 1 Rete.passiveQueue queueingTime:vector ETV
attr interpolationmode none
attr title "queueing time at dequeue, vector"
attr unit s
vector 2 Rete.sink lifeTime:vector ETV
attr interpolationmode none
attr title "lifetime of arrived jobs, vector"
attr unit s
vector 3 Rete.sink totalQueueingTime:vector ETV
attr interpolationmode none
attr title "the total time spent in queues by arrived jobs, vector"
attr unit s
vector 4 Rete.sink queuesVisited:vector ETV
attr interpolationmode none
attr title "the total number of queues visited by arrived jobs, vector"
vector 5 Rete.sink totalServiceTime:vector ETV
attr interpolationmode none
attr title "the total time spent  by arrived jobs, vector"
attr unit s
vector 6 Rete.sink totalDelayTime:vector ETV
attr interpolationmode none
attr title "the total time spent in delay nodes by arrived jobs, vector"
attr unit s
vector 7 Rete.sink delaysVisited:vector ETV
attr interpolationmode none
attr title "the total number of delays visited by arrived jobs, vector"
vector 8 Rete.sink generation:vector ETV
attr interpolationmode none
attr title "the generation of the arrived jobs, vector"
0	0	0	0
0	5	1.055531692411	1
0	7	1.086893921076	2
0	8	1.171029991245	1
0	11	1.400636313851	0
0	30	4.098917058043	1
0	32	4.12822187833	2
0	33	4.269239086419	1
0	37	4.356687313661	2
0	39	4.378542521735	3
0	40	4.498845409025	2
0	44	4.538979491217	3
0	45	4.728451731631	2
0	49	4.811331424832	3
0	50	4.958058054237	2
0	54	5.070685353075	3
0	55	5.187664376843	2
0	57	5.187664376843	1
0	59	5.417270699449	0
0	68	7.351568526463	1
0	70	7.398898093192	2
0	71	7.474065781004	1
0	75	7.551320589226	2
0	77	7.61643102441	3
0	78	7.70367210361	2
0	81	7.933278426216	1
0	84	8.162884748822	0
0	118	11.517525712785	1
0	119	11.661555513916	0
0	123	11.71593518656	1
0	124	11.891161836522	0
0	128	11.931828908565	1
0	130	11.953984535748	2
0	131	12.120768159128	1
0	134	12.350374481734	0
0	143	13.221418898381	1
0	144	13.244348253854	0
0	188	17.094845008721	1
0	189	17.30190478452	0
0	228	21.850810505556	1
0	229	21.970255726829	0
0	233	22.004213503044	1
0	235	22.081515218853	2
0	236	22.199862049435	1
0	239	22.429468372041	0
0	243	22.513628251436	1
0	244	22.659074694647	0
0	253	24.476668090108	1
0	254	24.633250087409	0
0	273	27.226658681346	1
0	274	27.43444124826	0
0	288	29.603481656192	1
0	289	29.696855569499	0
0	293	29.772067598955	1
0	294	29.926461892105	0
0	323	33.811700893578	1
0	324	34.019723594622	0
0	338	34.823356821741	1
0	339	34.924266541641	0
0	343	35.005401717132	1
0	344	35.153872864247	0
0	359	36.628167067728	1
0	360	36.649844367493	0
0	364	36.66879595167	1
0	366	36.722103043373	2
0	367	36.879450690099	1
0	371	37.068504409387	2
0	373	37.100134802695	3
0	374	37.109057012705	2
0	377	37.338663335311	1
0	381	37.369005062372	2
0	382	37.568269657917	1
0	386	37.609545868034	2
0	387	37.797875980523	1
0	390	38.027482303129	0
0	394	38.23994926986	1
0	395	38.257088625735	0
0	414	40.970915669335	1
0	415	40.995663028752	0
0	424	41.506150937227	1
0	425	41.524932416669	0
0	434	42.238331970425	1
0	435	42.324397318512	0
0	464	44.682797531884	1
0	465	44.795224401857	0
0	469	44.921875259801	1
0	471	44.987158909552	2
0	472	45.024830724463	1
0	475	45.254437047069	0
0	489	47.318321459977	1
0	490	47.369218905751	0
0	494	47.37538974429	1
0	495	47.598825228357	0
0	499	47.781254106591	1
0	500	47.828431550963	0
0	509	48.933564157118	1
0	510	48.972093700874	0
0	514	48.982978135576	1
0	515	49.20170002348	0
0	524	49.919880348815	1
0	526	49.940052951009	2
0	527	50.011769386232	1
0	530	50.241375708838	0
0	549	51.311663106582	1
0	551	51.373254962852	2
0	553	51.37409239702	3
0	555	51.428674118001	4
0	557	51.510009683704	5
0	558	51.515249626501	4
0	561	51.744855949107	3
0	564	51.974462271713	2
0	568	51.979108331973	3
0	570	52.164173332108	4
0	571	52.204068594319	3
0	573	52.204068594319	2
0	574	52.204068594319	1
0	576	52.433674916925	0
0	580	52.627573079481	1
0	582	52.636860546229	2
0	583	52.663281239531	1
0	587	52.814635590161	2
0	588	52.892887562137	1
0	591	53.122493884743	0
0	595	53.313596417772	1
0	596	53.352100207349	0
0	625	56.732516224246	1
0	626	56.823798230179	0
0	640	58.054452925774	1
0	641	58.282207598403	0
0	645	58.387698167953	1
0	646	58.511813921009	0
0	650	58.581683278734	1
0	652	58.738609690714	2
0	654	58.739540661404	3
0	655	58.741420243615	2
0	658	58.971026566221	1
0	662	59.022993192011	2
0	664	59.079826350606	3
0	665	59.200632888827	2
0	668	59.430239211433	1
0	671	59.659845534039	0
0	675	59.695463077134	1
0	677	59.789085300611	2
0	678	59.889451856645	1
0	681	60.119058179251	0
0	685	60.333486498098	1
0	686	60.348664501857	0
0	690	60.409800682488	1
0	691	60.578270824463	0
0	705	61.622927032982	1
0	706	61.68217589354	0
0	710	61.698674734389	1
0	714	62.021783804167	2
0	716	62.072691379873	3
0	717	62.192956686351	2
0	719	62.422563008957	1
0	722	62.652169331563	0
0	726	62.83357463592	1
0	727	62.881775654169	0
0	771	70.362158798587	1
0	773	70.434397636912	2
0	775	70.436782259898	3
0	776	70.514348610954	2
0	780	70.64856532155	3
0	781	70.74395493356	2
0	784	70.973561256166	1
0	787	71.203167578772	0
0	791	71.294876795104	1
0	793	71.427926883415	2
0	794	71.432773901378	1
0	797	71.662380223984	0
0	801	71.663979057777	1
0	803	71.80070853661	2
0	804	71.89198654659	1
0	808	72.005148272305	2
0	809	72.121592869196	1
0	813	72.210846572562	2
0	814	72.351199191802	1
0	817	72.580805514408	0
0	821	72.797549232229	1
0	822	72.810411837014	0
0	831	73.522713565059	1
0	832	73.689885663645	0
0	841	74.062377781832	1
0	842	74.173167749906	0
0	846	74.260763213152	1
0	847	74.402774072512	0
0	861	76.278405851805	1
0	862	76.398905104945	0
0	866	76.535271887307	1
0	867	76.628511427551	0
0	916	85.318888220392	1
0	917	85.484451704339	0
0	926	86.414187948281	1
0	927	86.509426527981	0
0	936	87.744034760083	1
0	937	87.957075813842	0
0	996	97.1260502161	1
0	997	97.269542214761	0
0	1001	97.416205135612	1
0	1002	97.499148537367	0
0	1006	97.590594774188	1
0	1007	97.728754859973	0
0	1016	98.279548383424	1
0	1017	98.32940244288	0
0	1021	98.357249554176	1
0	1023	98.555733195496	2
0	1024	98.559008765486	1
0	1028	98.589583045888	2
0	1029	98.788615088092	1
0	1032	99.018221410698	0
0	1036	99.181213346308	1
0	1037	99.247827733304	0
0	1051	100.848686777692	1
0	1052	101.042918254764	0
0	1056	101.204511159416	1
0	1057	101.27252457737	0
0	1063	101.699530952248	1
0	1065	101.706297783957	2
0	1066	101.783305370181	1
0	1069	101.864190662839	2
0	1070	102.012911692787	1
0	1073	102.242518015393	0
0	1087	103.693698805813	1
0	1088	103.75816441551	0
0	1097	105.602673506443	1
0	1098	105.754587067315	0
0	1112	106.627341180531	1
0	1113	106.637623517543	0
0	1147	109.292375645164	1
0	1149	109.350696153183	2
0	1151	109.371086551438	3
0	1152	109.484622335971	2
0	1156	109.632564064378	3
0	1157	109.714228658577	2
0	1161	109.815450594157	3
0	1162	109.943834981183	2
0	1165	110.173441303789	1
0	1168	110.403047626395	0
0	1177	111.091473287943	1
0	1179	111.270204279308	2
0	1180	111.281319445786	1
0	1183	111.510925768392	0
0	1217	115.116704416185	1
0	1218	115.164987524297	0
0	1222	115.19403647478	1
0	1223	115.394593846903	0
0	1232	116.327860550984	1
0	1233	116.357241841824	0
0	1242	116.867407304504	1
0	1243	116.968682879544	0
0	1247	117.13147407333	1
0	1248	117.19828920215	0
0	1257	118.425914147928	1
0	1258	118.577765000369	0
0	1262	118.699225380653	1
0	1263	118.807371322975	0
0	1267	118.825898047333	1
0	1269	118.973668746985	2
0	1270	119.036977645581	1
0	1273	119.266583968187	0
0	1292	122.812770133909	1
0	1294	122.97258203766	2
0	1295	122.98165232989	1
0	1299	123.146982532837	2
0	1301	123.184231414847	3
0	1302	123.211258652496	2
0	1305	123.440864975102	1
0	1308	123.670471297708	0
0	1327	126.660017125378	1
0	1329	126.721045710089	2
0	1330	126.884848271425	1
0	1333	127.114454594031	0
0	1337	127.27951967183	1
0	1338	127.344060916637	0
0	1342	127.440040493114	1
0	1343	127.573667239243	0
0	1357	130.71913601402	1
0	1359	130.836722067731	2
0	1360	130.873232505507	1
0	1364	130.952651408827	2
0	1365	131.102838828113	1
0	1368	131.332445150719	0
0	1382	132.733225932633	1
0	1383	132.747920620441	0
0	1392	135.403634449952	1
0	1394	135.562077877653	2
0	1395	135.624890505644	1
0	1398	135.85449682825	0
0	1414	137.443450342375	1
0	1416	137.540666154	2
0	1418	137.625732816283	3
0	1419	137.716519060719	2
0	1422	137.930139247569	3
0	1423	137.946125383325	2
0	1426	138.175731705931	1
0	1429	138.405338028537	0
0	1433	138.439798583889	1
0	1435	138.489820968281	2
0	1436	138.634944351143	1
0	1439	138.864550673749	0
0	1448	139.834098004456	1
0	1449	139.921625500328	0
0	1458	140.81037967876	1
0	1459	140.876845367939	0
0	1463	140.955632731919	1
0	1465	141.090501713307	2
0	1466	141.106451690545	1
0	1469	141.336058013151	0
0	1473	141.348806555263	1
0	1474	141.565664335757	0
0	1503	143.350204902227	1
0	1504	143.359963320446	0
0	1533	147.262285627359	1
0	1534	147.331355198762	0
0	1588	154.754872483396	1
0	1589	154.883073496805	0
0	1598	155.749291269121	1
0	1600	155.773113792446	2
0	1601	155.795492183056	1
0	1605	155.917902578402	2
0	1606	156.025098505662	1
0	1610	156.046388000645	2
0	1611	156.254704828268	1
0	1615	156.442589661426	2
0	1616	156.484311150874	1
0	1620	156.577462692473	2
0	1621	156.71391747348	1
0	1624	156.943523796086	0
0	1658	159.243642146317	1
0	1659	159.397116195119	0
0	1663	159.413645805196	1
0	1664	159.626722517725	0
0	1683	162.893936375238	1
0	1684	163.050223823016	0
0	1693	163.725322833731	1
0	1694	163.725826270034	0
0	1708	165.942656244047	1
0	1709	166.123575226618	0
0	1743	169.185640398284	1
0	1744	169.315282332997	0
0	1753	170.132018672744	1
0	1754	170.296701657392	0
0	1779	173.117442024722	1
0	1780	173.30125924698	0
0	1799	175.299724554029	1
0	1801	175.36881450898	2
0	1802	175.442022587518	1
0	1806	175.479719207689	2
0	1807	175.671628910124	1
0	1811	175.679093996089	2
0	1812	175.90123523273	1
0	1816	175.951759023883	2
0	1817	176.130841555336	1
0	1821	176.343585901911	2
0	1822	176.360447877942	1
0	1825	176.590054200548	0
0	1844	177.929902878188	1
0	1845	177.979818931837	0
0	1849	177.98744841154	1
0	1851	178.034156405204	2
0	1852	178.209425254443	1
0	1856	178.393043203845	2
0	1857	178.439031577049	1
0	1860	178.668637899655	0
0	1894	182.92410416924	1
0	1895	183.019451433456	0
0	1899	183.060456912002	1
0	1901	183.22967876981	2
0	1902	183.249057756062	1
0	1905	183.478664078668	0
0	1909	183.605148810964	1
0	1910	183.708270401274	0
0	1914	183.887025920886	1
0	1915	183.93787672388	0
0	1924	185.028602239504	1
0	1925	185.065481792979	0
0	1929	185.107413907788	1
0	1930	185.295088115585	0
0	1934	185.369660714983	1
0	1935	185.524694438191	0
0	1954	187.266072363603	1
0	1955	187.417117762939	0
0	1959	187.450723419647	1
0	1960	187.646724085545	0
0	1974	188.36663717248	1
0	1976	188.445797952031	2
0	1977	188.458067507628	1
0	1980	188.687673830234	0
0	1984	188.791957001615	1
0	1985	188.91728015284	0
0	1994	189.441570626946	1
0	1995	189.566204593426	0
0	2014	191.433834677905	1
0	2015	191.575620200381	0
0	2029	192.976214252537	1
0	2030	193.042603632626	0
0	2034	193.067423134103	1
0	2035	193.272209955232	0
0	2049	194.767919944096	1
0	2051	194.832001036434	2
0	2052	194.934619856133	1
0	2055	195.164226178739	0
0	2059	195.176450429233	1
0	2060	195.393832501345	0
0	2099	200.008920364707	1
0	2100	200.062130954141	0
0	2114	202.663505683649	1
0	2117	203.14147437936	0
0	2125	204.395922845332	1
0	2126	204.417519219644	0
0	2165	209.479628144651	1
0	2167	209.483346176268	2
0	2169	209.502482027769	3
0	2170	209.620953831347	2
0	2173	209.850560153953	1
0	2176	210.080166476559	0
0	2180	210.24497804024	1
0	2181	210.309772799165	0
0	2190	211.442694102473	1
0	2191	211.456478213667	0
0	2205	212.264159086312	1
0	2206	212.427427949791	0
0	2215	212.89050089586	1
0	2216	212.938654107249	0
0	2225	213.578282008309	1
0	2226	213.677139649265	0
0	2235	214.310124460375	1
0	2236	214.368309084471	0
0	2250	215.144452547851	1
0	2251	215.357163875787	0
0	2260	215.668289929788	1
0	2262	215.736561566394	2
0	2264	215.8270835303	3
0	2265	215.897881605851	2
0	2268	216.127487928457	1
0	2272	216.293277528506	2
0	2274	216.297825101564	3
0	2275	216.357094251063	2
0	2278	216.586700573669	1
0	2281	216.816306896275	0
0	2290	217.609846552913	1
0	2291	217.733403446259	0
0	2320	221.389646205056	1
0	2321	221.477883685567	0
0	2330	222.885983610259	1
0	2331	222.951689240699	0
0	2335	223.105255123168	1
0	2337	223.10683824302	2
0	2339	223.177037955688	3
0	2340	223.181295563305	2
0	2343	223.410901885911	1
0	2346	223.640508208517	0
0	2355	224.092000024722	1
0	2357	224.223612804683	2
0	2358	224.278075485609	1
0	2362	224.337899952553	2
0	2363	224.507681808215	1
0	2367	224.55078689591	2
0	2368	224.737288130821	1
0	2372	224.914850300211	2
0	2373	224.966894453427	1
0	2376	225.196500776033	0
0	2380	225.305307776635	1
0	2381	225.426107098639	0
0	2400	227.25743166833	1
0	2401	227.367158099161	0
0	2405	227.574091784449	1
0	2406	227.596764421767	0
0	2435	231.139790632974	1
0	2436	231.195027714836	0
0	2455	233.110299738443	1
0	2456	233.272183129617	0
0	2465	234.148323002622	1
0	2468	234.639044650835	0
0	2476	235.167198725587	1
0	2477	235.207540857429	0
0	2491	236.454650465779	1
0	2492	236.497243996708	0
0	2501	237.030322654454	1
0	2502	237.121544387733	0
0	2506	237.237949576124	1
0	2507	237.351150710339	0
0	2511	237.399886831676	1
0	2512	237.580757032945	0
0	2531	239.712601773268	1
0	2532	239.768271584692	0
0	2536	239.826780495239	1
0	2538	239.96703878546	2
0	2539	239.997877907298	1
0	2542	240.227484229904	0
0	2561	242.2630884185	1
0	2562	242.32008376403	0
0	2566	242.544838868573	1
0	2567	242.549690086636	0
0	2616	248.006878735346	1
0	2617	248.096655064475	0
0	2631	250.128962890429	1
0	2633	250.243000232431	2
0	2634	250.354109279476	1
0	2638	250.575724552276	2
0	2639	250.583715602082	1
0	2642	250.813321924688	0
0	2646	251.011961480342	1
0	2647	251.042928247294	0
0	2656	252.093495702277	1
0	2657	252.190679264945	0
0	2716	260.217358630477	1
0	2717	260.441693624222	0
0	2761	265.498065501772	1
0	2763	265.51600935141	2
0	2764	265.652337199253	1
0	2767	265.881943521859	0
0	2771	266.065358891206	1
0	2772	266.111549844465	0
0	2781	266.539820260532	1
0	2782	266.648112550441	0
0	2786	266.875151082586	1
0	2787	266.877718873047	0
0	2801	268.038494619923	1
0	2802	268.091185458731	0
0	2816	269.844757912199	1
0	2819	270.299612312343	0
0	2832	271.468932241699	1
0	2833	271.535540847736	0
0	2842	272.182396194228	1
0	2843	272.288747583232	0
0	2867	274.636193461288	1
0	2868	274.81000903939	0
0	2912	280.770367296983	1
0	2913	280.996739657649	0
0	2917	281.129626703572	1
0	2918	281.226345980255	0
0	2922	281.38474614075	1
0	2923	281.455952302861	0
0	2927	281.531116718645	1
0	2928	281.685558625467	0
0	2947	282.53167408367	1
0	2949	282.713658466523	2
0	2950	282.757439665531	1
0	2953	282.987045988137	0
0	2967	287.13450479941	1
0	2968	287.27294467458	0
0	2977	287.779221638716	1
0	2979	287.828661184519	2
0	2980	287.829538075641	1
0	2983	288.059144398247	0
0	2997	291.248794689758	1
0	2999	291.445322800244	2
0	3000	291.457178443798	1
0	3004	291.598469201074	2
0	3005	291.686784766404	1
0	3009	291.778366196842	2
0	3010	291.91639108901	1
0	3014	291.938826676197	2
0	3015	292.145997411616	1
0	3018	292.375603734222	0
0	3032	294.659200724047	1
0	3033	294.825260712095	0
0	3042	295.642229607972	1
0	3043	295.854988477098	0
0	3047	296.050059090243	1
0	3049	296.05447014671	2
0	3050	296.084594799704	1
0	3053	296.31420112231	0
0	3067	297.409655315102	1
0	3068	297.478184293826	0
0	3072	297.694729080952	1
0	3073	297.707790616432	0
0	3092	299.249976411291	1
0	3094	299.406037984122	2
0	3095	299.447547364486	1
0	3098	299.677153687092	0
0	3132	304.096890067748	1
0	3134	304.248722246443	2
0	3135	304.288288117857	1
0	3138	304.517894440463	0
0	3147	304.975678710165	1
0	3148	305.145829887451	0
0	3152	305.242494032896	1
0	3153	305.375436210057	0
0	3188	310.62475280731	1
0	3189	310.664206782893	0
0	3193	310.69741705536	1
0	3194	310.893813105499	0
0	3223	314.991196664761	1
0	3224	315.030718507958	0
0	3228	315.152591774964	1
0	3230	315.206030540836	2
0	3232	315.251942892502	3
0	3233	315.260324830564	2
0	3236	315.48993115317	1
0	3239	315.719537475776	0
0	3248	316.240160899675	1
0	3249	316.251354430537	0
0	3278	319.474498179641	1
0	3279	319.563245750833	0
0	3283	319.645985578658	1
0	3284	319.792852073439	0
0	3288	319.869511539968	1
0	3289	320.022458396045	0
0	3303	321.906729296921	1
0	3304	321.990522454094	0
0	3313	322.833621386615	1
0	3314	323.057712737167	0
0	3318	323.075420681605	1
0	3320	323.079568064634	2
0	3321	323.287319059773	1
0	3324	323.516925382379	0
0	3333	324.964349434024	1
0	3334	325.141425803261	0
0	3353	327.605474175621	1
0	3354	327.682645673732	0
0	3398	333.670238499401	1
0	3399	333.88654155712	0
0	3418	336.189401174937	1
0	3419	336.2904925831	0
0	3423	336.397003663964	1
0	3424	336.520098905706	0
0	3433	336.934406759794	1
0	3434	337.13591344309	0
0	3443	337.904601298608	1
0	3444	338.124820732707	0
0	3453	338.559162444859	1
0	3454	338.60469857643	0
0	3463	339.429201235888	1
0	3464	339.465961698459	0
0	3468	339.466253362941	1
0	3469	339.695568021065	0
0	3478	340.199493262816	1
0	3479	340.377239182021	0
0	3488	340.998532615381	1
0	3489	341.19829885807	0
0	3493	341.30169360805	1
0	3495	341.368171358223	2
0	3496	341.427905180676	1
0	3500	341.430786433266	2
0	3501	341.657511503282	1
0	3505	341.67760978159	2
0	3507	341.834455359246	3
0	3508	341.887117825888	2
0	3511	342.116724148494	1
0	3515	342.15547514826	2
0	3516	342.3463304711	1
0	3520	342.48377569159	2
0	3522	342.546935878924	3
0	3525	342.857111263911	2
0	3526	342.857111263911	1
0	3528	343.086717586517	0
0	3542	344.873354790184	1
0	3543	344.973133749695	0
0	3557	346.915846883778	1
0	3558	347.054413424931	0
0	3567	348.939447283163	1
0	3569	348.951461126399	2
0	3570	349.04540341016	1
0	3573	349.275009732766	0
0	3582	350.034087045547	1
0	3583	350.057145968298	0
0	3587	350.137637846466	1
0	3588	350.286752290904	0
0	3607	351.81268641436	1
0	3608	351.994552276868	0
0	3612	352.057491798415	1
0	3613	352.224158599474	0
0	3622	352.732330901063	1
0	3623	352.930915886725	0
0	3632	353.59940032846	1
0	3633	353.788495605762	0
0	3637	353.823933546816	1
0	3639	353.924087855827	2
0	3640	354.018101928368	1
0	3643	354.247708250974	0
0	3657	356.177084069512	1
0	3658	356.356937990728	0
0	3672	357.483802648692	1
0	3673	357.575969943154	0
0	3687	359.129944536555	1
0	3688	359.200432421683	0
0	3707	362.12705763854	1
0	3708	362.273988350078	0
0	3722	365.108584455693	1
0	3723	365.20142261562	0
0	3747	368.733573633095	1
0	3748	368.813693972487	0
0	3772	370.805564850636	1
0	3773	371.034055653895	0
0	3837	383.985112963165	1
0	3838	384.081457663661	0
0	3862	386.562557686595	1
0	3863	386.663759056583	0
0	3867	386.821106799836	1
0	3868	386.893365379189	0
0	3874	387.179752182823	1
0	3876	387.377568513807	2
0	3877	387.404146172	1
0	3880	387.476304690082	2
0	3881	387.633752494606	1
0	3884	387.863358817212	0
0	3898	388.79514296755	1
0	3899	388.802426717362	0
0	3903	388.828233195636	1
0	3905	388.89784048964	2
0	3907	388.957922650434	3
0	3909	388.958086118793	4
0	3910	389.032033039968	3
0	3914	389.237773797893	4
0	3915	389.261639362574	3
0	3918	389.49124568518	2
0	3921	389.720852007786	1
0	3923	389.720852007786	0
0	3936	391.475384002244	1
0	3937	391.57509498185	0
0	3956	392.716527889377	1
0	3957	392.866004615501	0
0	3961	393.028887403617	1
0	3962	393.095610938107	0
0	3986	396.214598259959	1
0	3987	396.401315017297	0
0	3996	397.385785137232	1
0	3997	397.5622406086	0
0	4006	399.197208274664	1
0	4007	399.375006596404	0
0	4016	400.264458647645	1
0	4018	400.436298821421	2
0	4019	400.450605711957	1
0	4022	400.680212034563	0
0	4026	400.682049689402	1
0	4027	400.909818357169	0
0	4046	402.656463086642	1
0	4047	402.761371450975	0
0	4066	405.067945238304	1
0	4068	405.245890932364	2
0	4069	405.255776791886	1
0	4072	405.485383114492	0
0	4096	407.830449296788	1
0	4097	408.034397344846	0
0	4101	408.14120708705	1
0	4103	408.226647917283	2
0	4104	408.264003667452	1
0	4108	408.452378340598	2
0	4109	408.493609990058	1
0	4113	408.700816815144	2
0	4114	408.723216312664	1
0	4118	408.735221874283	2
0	4119	408.95282263527	1
0	4122	409.182428957876	0
0	4131	409.959706597948	1
0	4132	410.146119631142	0
0	4136	410.304823018937	1
0	4137	410.375725953748	0
0	4141	410.414250256208	1
0	4142	410.605332276354	0
0	4151	411.228117812443	1
0	4152	411.412386508222	0
0	4161	412.10309487873	1
0	4162	412.130949020294	0
0	4166	412.207918801943	1
0	4167	412.3605553429	0
0	4181	413.413000210594	1
0	4182	413.584880769269	0
0	4186	413.650001910017	1
0	4187	413.814487091875	0
0	4196	415.526194355062	1
0	4197	415.57743410631	0
0	4201	415.758910787976	1
0	4202	415.807040428916	0
0	4206	415.914842074914	1
0	4207	416.036646751522	0
0	4211	416.089029400984	1
0	4213	416.17729521941	2
0	4214	416.266253074128	1
0	4217	416.495859396734	0
0	4228	417.204956089558	1
0	4229	417.261917598424	0
0	4232	417.435099223449	1
0	4234	417.44250581264	2
0	4235	417.49152392103	1
0	4238	417.721130243636	0
0	4267	421.494782583738	1
0	4268	421.516305011317	0
0	4272	421.535716076802	1
0	4273	421.745911333923	0
0	4282	422.02486232461	1
0	4283	422.231487516782	0
0	4287	422.25829753358	1
0	4288	422.461093839388	0
0	4292	422.52745647101	1
0	4293	422.690700161994	0
0	4302	423.658312864796	1
0	4303	423.663127372909	0
0	4307	423.730859492894	1
0	4308	423.892733695515	0
0	4312	424.01098277378	1
0	4313	424.122340018121	0
0	4332	425.86478812899	1
0	4333	425.874358118641	0
0	4352	427.412401331354	1
0	4353	427.46019254009	0
0	4357	427.569725823902	1
0	4358	427.689798862696	0
0	4367	428.30361626347	1
0	4368	428.34378051661	0
0	4372	428.499054996933	1
0	4373	428.573386839216	0
0	4407	434.074132867993	1
0	4408	434.164851729291	0
0	4412	434.181506001868	1
0	4413	434.394458051897	0
0	4437	437.879834720027	1
0	4438	437.94557514769	0
0	4447	439.182997390065	1
0	4448	439.217368964311	0
0	4457	440.577421252911	1
0	4458	440.601337404296	0
0	4482	443.470140895857	1
0	4483	443.694291112429	0
0	4492	444.336085979496	1
0	4493	444.526253929907	0
0	4497	444.598603343978	1
0	4498	444.755860252513	0
0	4507	445.257092929438	1
0	4508	445.326875176353	0
0	4512	445.420208661555	1
0	4513	445.556481498959	0
0	4517	445.690239436742	1
0	4518	445.786087821565	0
0	4537	447.371772601092	1
0	4538	447.479687684483	0
0	4547	448.997092964325	1
0	4548	449.084188935898	0
0	4552	449.199347128182	1
0	4554	449.25124588097	2
0	4555	449.313795258504	1
0	4559	449.469170247775	2
0	4560	449.54340158111	1
0	4563	449.773007903716	0
0	4572	450.457050181513	1
0	4573	450.581306429116	0
0	4593	453.418353460086	1
0	4595	453.427034107932	2
0	4596	453.636851216337	1
0	4599	453.866457538943	0
0	4608	454.351740157237	1
0	4610	454.35423508972	2
0	4611	454.393893572228	1
0	4615	454.462174002399	2
0	4617	454.555853832696	3
0	4618	454.623499894834	2
0	4621	454.85310621744	1
0	4625	454.870511364003	2
0	4626	455.082712540046	1
0	4629	455.312318862652	0
0	4653	458.577309456721	1
0	4654	458.636331258834	0
0	4678	461.695744300848	1
0	4679	461.716100242331	0
0	4683	461.824433221743	1
0	4684	461.945706564937	0
0	4693	462.383197943842	1
0	4694	462.543688490972	0
0	4703	462.877955254204	1
0	4704	463.042684921038	0
0	4778	477.503521521412	1
0	4779	477.52510159809	0
0	4788	478.97960721431	1
0	4789	479.158094602451	0
0	4823	484.182705661864	1
0	4824	484.372986797669	0
0	4858	488.296488551317	1
0	4860	488.301259218528	2
0	4861	488.317123316932	1
0	4864	488.546729639538	0
0	4883	491.049733950887	1
0	4884	491.203523059428	0
0	4893	492.394691312046	1
0	4894	492.546338139824	0
0	4930	496.102832938884	1
0	4931	496.250318100251	0
0	4939	497.132649365741	1
0	4940	497.145712629805	0
0	4964	499.192135185853	1
0	4965	499.217702483618	0
0	4984	501.069522563003	1
0	4985	501.290742548274	0
0	5014	505.150999727481	1
0	5015	505.156635560224	0
0	5034	507.231671291599	1
0	5035	507.387377577429	0
0	5064	510.148560661532	1
0	5065	510.213898117987	0
0	5089	514.256035264784	1
0	5090	514.4175849301	0
0	5114	518.059241223347	1
0	5115	518.238856609543	0
0	5124	519.634833346305	1
0	5125	519.774296210101	0
0	5129	519.807160951269	1
0	5131	519.869411776512	2
0	5132	520.003902532707	1
0	5135	520.233508855313	0
0	5144	520.658696578859	1
0	5146	520.688467214476	2
0	5147	520.813211183172	1
0	5150	521.042817505778	0
0	5169	522.272743131983	1
0	5171	522.447347635556	2
0	5172	522.483011854951	1
0	5176	522.70818687039	2
0	5177	522.712618177557	1
0	5181	522.938005233972	2
0	5182	522.942224500163	1
0	5185	523.171830822769	0
0	5189	523.29136627586	1
0	5191	523.391311802243	2
0	5192	523.401437145375	1
0	5195	523.631043467981	0
0	5214	525.784171867195	1
0	5216	525.792679483441	2
0	5218	525.827729093777	3
0	5219	525.907302803483	2
0	5222	526.136909126089	1
0	5226	526.23459498054	2
0	5227	526.366515448695	1
0	5230	526.596121771301	0
0	5269	530.034405700174	1
0	5270	530.202456383863	0
0	5279	530.971247117288	1
0	5281	530.972116472374	2
0	5285	531.302751635727	3
0	5287	531.304996814364	4
0	5288	531.385593738259	3
0	5290	531.615200060865	2
0	5292	531.615200060865	1
0	5294	531.844806383471	0
0	5298	532.013064895396	1
0	5299	532.074412706077	0
0	5313	533.000017931141	1
0	5314	533.028908552157	0
0	5323	534.378117268708	1
0	5324	534.393429056002	0
0	5328	534.511767288951	1
0	5329	534.623035378608	0
0	5333	534.679488530112	1
0	5335	534.72492798024	2
0	5337	534.81116760511	3
0	5338	534.852641701214	2
0	5341	535.08224802382	1
0	5345	535.082950795137	2
0	5346	535.311854346426	1
0	5349	535.541460669032	0
0	5383	539.110763060181	1
0	5384	539.112870670275	0
0	5393	540.011770938507	1
0	5394	540.043581030162	0
0	5413	541.692975269642	1
0	5414	541.811192626556	0
0	5428	543.107857066125	1
0	5430	543.159285542926	2
0	5432	543.279087424217	3
0	5433	543.285579721275	2
0	5437	543.292029253366	3
0	5439	543.427615347703	4
0	5440	543.515186043881	3
0	5443	543.744792366487	2
0	5446	543.974398689093	1
0	5448	543.974398689093	0
0	5451	544.006246022374	1
0	5452	544.204005011699	0
0	5461	545.156743525548	1
0	5462	545.295602064201	0
0	5476	546.70852884189	1
0	5477	546.834109641668	0
0	5501	550.565871011755	1
0	5502	550.751206552022	0
0	5511	551.477021428738	1
0	5512	551.511388698583	0
0	5521	553.429009058407	1
0	5522	553.599771593546	0
0	5541	557.579916716081	1
0	5543	557.667768863986	2
0	5544	557.719611127934	1
0	5547	557.94921745054	0
0	5591	565.125180205406	1
0	5593	565.160256686351	2
0	5594	565.245023601909	1
0	5597	565.474629924515	0
0	5601	565.560289478788	1
0	5602	565.704236247121	0
0	5606	565.80910173331	1
0	5607	565.933842569727	0
0	5616	567.570043711945	1
0	5617	567.752985970341	0
0	5636	569.475042139108	1
0	5640	569.694675110565	2
0	5641	569.806247426439	1
0	5643	570.035853749045	0
0	5657	572.413442984942	1
0	5658	572.622924902424	0
0	5662	572.76698916409	1
0	5663	572.85253122503	0
0	5667	572.944845647488	1
0	5668	573.082137547636	0
0	5687	574.700745673875	1
0	5689	574.747551702578	2
0	5690	574.868438270055	1
0	5694	575.064196432173	2
0	5695	575.098044592661	1
0	5698	575.327650915267	0
0	5712	576.026415525353	1
0	5713	576.199583871854	0
0	5722	577.246378166021	1
0	5723	577.365600756667	0
0	5732	577.850679558217	1
0	5733	577.859124070164	0
0	5762	580.573602676425	1
0	5763	580.80156682968	0
0	5767	580.83163251126	1
0	5769	580.874860397253	2
0	5771	580.976034533208	3
0	5772	581.031173152286	2
0	5776	581.155214789362	3
0	5777	581.260779474892	2
0	5780	581.490385797498	1
0	5783	581.719992120104	0
0	5792	583.569629926404	1
0	5793	583.77029596175	0
0	5797	583.909084430277	1
0	5798	583.999902284356	0
0	5807	584.633004665431	1
0	5808	584.807344026601	0
0	5832	588.2799269582	1
0	5833	588.382673928512	0
0	5837	588.409839363023	1
0	5838	588.612280251118	0
0	5852	590.624810173795	1
0	5853	590.804846034433	0
0	5862	591.270783391003	1
0	5863	591.373963158777	0
0	5872	592.081432926796	1
0	5874	592.20283725844	2
0	5875	592.307753009595	1
0	5878	592.537359332201	0
0	5897	595.460289061182	1
0	5898	595.603117635912	0
0	5912	598.042815791382	1
0	5914	598.046343513383	2
0	5915	598.12680483636	1
0	5918	598.356411158966	0
0	5922	598.38315676555	1
0	5924	598.557171239975	2
0	5925	598.586017481572	1
0	5929	598.76854342107	2
0	5930	598.815623804178	1
0	5934	598.90901204991	2
0	5935	599.045230126784	1
0	5939	599.081917152508	2
0	5941	599.16389434511	3
0	5942	599.27483644939	2
0	5945	599.504442771996	1
0	5948	599.734049094602	0
0	5957	600.283087620122	1
0	5958	600.356553244347	0
0	5962	600.403253949662	1
0	5963	600.586159566953	0
0	5967	600.776188156548	1
0	5968	600.815765889559	0
0	5972	600.876384373116	1
0	5973	601.045372212165	0
0	5987	601.884720973307	1
0	5991	602.031987486089	2
0	5993	602.109423877724	3
0	5994	602.297982616695	2
0	5996	602.527588939301	1
0	5999	602.757195261907	0
0	6006	603.648261092638	1
0	6007	603.820498414588	0
0	6016	604.112659320006	1
0	6017	604.311363595855	0
0	6021	604.448423416618	1
0	6022	604.540969918461	0
0	6051	607.07926211734	1
0	6052	607.292692761618	0
0	6081	609.589729307654	1
0	6082	609.70659165551	0
0	6096	610.733780023057	1
0	6097	610.756706386419	0
0	6121	614.667730835098	1
0	6122	614.740458474064	0
0	6126	614.863124290062	1
0	6127	614.97006479667	0
0	6131	615.120717417304	1
0	6132	615.199671119276	0
0	6136	615.294936599696	1
0	6137	615.429277441882	0
0	6141	615.596545683597	1
0	6142	615.658883764488	0
0	6156	617.430818199826	1
0	6158	617.449009390279	2
0	6159	617.544292782822	1
0	6163	617.575085179352	2
0	6164	617.773899105428	1
0	6168	617.803314289518	2
0	6169	618.003505428034	1
0	6172	618.23311175064	0
0	6176	618.44162760952	1
0	6177	618.462718073246	0
0	6201	623.237215049362	1
0	6202	623.359084659229	0
0	6211	624.607421294291	1
0	6212	624.61452085491	0
0	6221	625.84518343315	1
0	6222	625.993329098472	0
0	6236	627.123265004403	1
0	6237	627.131391164324	0
0	6251	628.162597091347	1
0	6252	628.236890140996	0
0	6276	630.830460259251	1
0	6277	631.016923515661	0
0	6281	631.069954323297	1
0	6283	631.162005003015	2
0	6284	631.246529838267	1
0	6288	631.304914177878	2
0	6290	631.462200948119	3
0	6291	631.476136160873	2
0	6295	631.537214819169	3
0	6296	631.705742483479	2
0	6299	631.935348806085	1
0	6302	632.164955128691	0
0	6309	632.590629450103	1
0	6311	632.685647005979	2
0	6312	632.752571398593	1
0	6315	632.982177721199	0
0	6319	633.118897430727	1
0	6320	633.211784043805	0
0	6324	633.335075693025	1
0	6325	633.441390366411	0
0	6339	636.317865012947	1
0	6340	636.417690608837	0
0	6355	638.181963270714	1
0	6356	638.245555450728	0
0	6370	639.060798433317	1
0	6371	639.194442778182	0
0	6380	639.600101622831	1
0	6381	639.709039847551	0
0	6385	639.928577105594	1
0	6386	639.938646170157	0
0	6405	641.706222983879	1
0	6406	641.706833606889	0
0	6415	642.04546380563	1
0	6417	642.254922857433	2
0	6418	642.259443083554	1
0	6421	642.48904940616	0
0	6445	645.927004442756	1
0	6446	646.001216018912	0
0	6465	647.954218265104	1
0	6467	648.079079825723	2
0	6468	648.127799162104	1
0	6471	648.35740548471	0
0	6475	648.536801201601	1
0	6476	648.587011807316	0
0	6480	648.720467697016	1
0	6481	648.816618129922	0
0	6510	651.197656308868	1
0	6511	651.413966832219	0
0	6530	654.164769122848	1
0	6532	654.275833488891	2
0	6533	654.31678488053	1
0	6536	654.546391203136	0
0	6540	654.773786663051	1
0	6541	654.775997525742	0
0	6545	654.924613309086	1
0	6546	655.005603848348	0
0	6555	656.33243771942	1
0	6556	656.45390909491	0
0	6565	656.97304251913	1
0	6566	657.119308371166	0
0	6605	662.254398899329	1
0	6606	662.305852729426	0
0	6615	663.320754214981	1
0	6616	663.464046955659	0
0	6630	665.8574637556	1
0	6631	665.987407481485	0
0	6635	666.135128960179	1
0	6636	666.217013804091	0
0	6640	666.228224268557	1
0	6642	666.348927101933	2
0	6643	666.446620126697	1
0	6647	666.56434368078	2
0	6648	666.676226449303	1
0	6652	666.724257447339	2
0	6653	666.905832771909	1
0	6657	667.133789099484	2
0	6658	667.135439094515	1
0	6661	667.365045417121	0
0	6665	667.500773823104	1
0	6666	667.594651739727	0
0	6685	669.50479690414	1
0	6686	669.604755358928	0
0	6697	670.271762913247	1
0	6698	670.349574993573	0
0	6701	670.511601534583	1
0	6702	670.579181316179	0
0	6716	671.243575198225	1
0	6717	671.448781101058	0
0	6721	671.508296187845	1
0	6723	671.567981778443	2
0	6724	671.678387423664	1
0	6728	671.837329710266	2
0	6729	671.90799374627	1
0	6733	671.940566357558	2
0	6734	672.137600068876	1
0	6737	672.367206391482	0
0	6741	672.5718311973	1
0	6742	672.596812714088	0
0	6751	673.352246482376	1
0	6752	673.388679810904	0
0	6786	677.426227542961	1
0	6787	677.623904894034	0
0	6791	677.698547841648	1
0	6793	677.743330600044	2
0	6794	677.85351121664	1
0	6797	678.083117539246	0
0	6801	678.17848926336	1
0	6803	678.228480463645	2
0	6804	678.312723861852	1
0	6808	678.384654107934	2
0	6809	678.542330184458	1
0	6812	678.771936507064	0
0	6821	679.675806535463	1
0	6822	679.680524886443	0
0	6826	679.758505943816	1
0	6827	679.910131209049	0
0	6851	682.622652261665	1
0	6852	682.758660574155	0
0	6861	683.833618321212	1
0	6862	683.87811716314	0
0	6866	683.897160430925	1
0	6868	684.031056555117	2
0	6869	684.107723485746	1
0	6872	684.337329808352	0
0	6876	684.470162797593	1
0	6877	684.566936130958	0
0	6886	685.914332938542	1
0	6887	686.028040199577	0
0	6906	687.312895671439	1
0	6907	687.530559660139	0
0	6911	687.678270160025	1
0	6912	687.760165982745	0
0	6921	688.111878742045	1
0	6923	688.161367976668	2
0	6924	688.276054507423	1
0	6928	688.43295786106	2
0	6929	688.505660830029	1
0	6932	688.735267152635	0
0	6956	691.787388812792	1
0	6957	691.926600516819	0
0	6996	699.142566510166	1
0	6997	699.350589515816	0
0	7006	699.799671691851	1
0	7007	699.835019907014	0
0	7016	700.225446707977	1
0	7018	700.293348966793	2
0	7019	700.320591888738	1
0	7022	700.550198211344	0
0	7041	702.168295985574	1
0	7043	702.312039252268	2
0	7045	702.312731066652	3
0	7046	702.329204972403	2
0	7050	702.379540834559	3
0	7052	702.392942581002	4
0	7056	702.5823331952	5
0	7057	702.839985765214	4
0	7059	703.06959208782	3
0	7061	703.06959208782	2
0	7062	703.06959208782	1
0	7063	703.06959208782	0
0	7066	703.076565379709	1
0	7068	703.141024761149	2
0	7069	703.299198410426	1
0	7072	703.528804733032	0
0	7086	705.762798757528	1
0	7087	705.836018614632	0
0	7106	708.774867512323	1
0	7107	708.809183197856	0
0	7131	711.09573889879	1
0	7132	711.159372704722	0
0	7146	711.945997054012	1
0	7148	712.044102926364	2
0	7150	712.05624999403	3
0	7151	712.159231103543	2
0	7154	712.388837426149	1
0	7158	712.42096439356	2
0	7159	712.618443748755	1
0	7162	712.848050071361	0
0	7166	712.965979216735	1
0	7167	713.077656393967	0
0	7176	713.459074704998	1
0	7178	713.623535582694	2
0	7179	713.659665380084	1
0	7182	713.88927170269	0
0	7186	714.068258148881	1
0	7188	714.104308773904	2
0	7189	714.118878025296	1
0	7193	714.310851439039	2
0	7194	714.348484347902	1
0	7197	714.578090670508	0
0	7201	714.685012315065	1
0	7203	714.760981984763	2
0	7204	714.807696993114	1
0	7208	714.813998225348	2
0	7210	714.956322150468	3
0	7211	715.03730331572	2
0	7214	715.266909638326	1
0	7217	715.496515960932	0
0	7221	715.572801636548	1
0	7222	715.726122283538	0
0	7246	718.460066905413	1
0	7247	718.477969049378	0
0	7266	720.689161157958	1
0	7268	720.794679869803	2
0	7269	720.818479723001	1
0	7272	721.048086045607	0
0	7296	723.805014215329	1
0	7297	723.839389853968	0
0	7316	727.258173823812	1
0	7317	727.483922513957	0
0	7321	727.690936103129	1
0	7322	727.713528836563	0
0	7341	729.237127929205	1
0	7342	729.336564274483	0
0	7361	731.385389145674	1
0	7362	731.502531098138	0
0	7376	732.402885882098	1
0	7377	732.446288948264	0
0	7401	734.844439335483	1
0	7402	734.978234069912	0
0	7408	735.34852646561	1
0	7410	735.354328491987	2
0	7411	735.489014862723	1
0	7413	735.718621185329	0
0	7422	736.115456738009	1
0	7423	736.212387355738	0
0	7457	739.788164420289	1
0	7459	739.876800621062	2
0	7460	739.881866987378	1
0	7464	739.884868204822	2
0	7465	740.111473309984	1
0	7468	740.34107963259	0
0	7487	743.266875613415	1
0	7488	743.29174285649	0
0	7492	743.428014468141	1
0	7493	743.521349179096	0
0	7522	749.396324881308	1
0	7523	749.400512955588	0
0	7532	749.904459221279	1
0	7533	750.088955092799	0
0	7547	752.057764585395	1
0	7548	752.087426429081	0
0	7557	752.541700823715	1
0	7558	752.731868614397	0
0	7562	752.754428364213	1
0	7563	752.961474937003	0
0	7567	752.962603186664	1
0	7569	753.06740060052	2
0	7570	753.191081259609	1
0	7574	753.366371610944	2
0	7575	753.420687582215	1
0	7578	753.650293904821	0
0	7582	753.651504045781	1
0	7584	753.767976918143	2
0	7585	753.879900227427	1
0	7589	753.893785489121	2
0	7591	753.960022107957	3
0	7593	753.967054247688	4
0	7594	754.109506550033	3
0	7597	754.339112872639	2
0	7601	754.552619358582	3
0	7602	754.568719195245	2
0	7604	754.568719195245	1
0	7606	754.798325517851	0
0	7615	755.975120367989	1
0	7616	756.094336462646	0
0	7625	756.723874356689	1
0	7626	756.899507855348	0
0	7655	760.01376364538	1
0	7657	760.02231513229	2
0	7658	760.126884382448	1
0	7661	760.356490705054	0
0	7670	761.087914719655	1
0	7671	761.107167909817	0
0	7685	762.018129392354	1
0	7686	762.156010273751	0
0	7720	766.448976366299	1
0	7721	766.544270233508	0
0	7730	767.584924192356	1
0	7731	767.72067850388	0
0	7750	769.237271340266	1
0	7751	769.393422195712	0
0	7755	769.435075946234	1
0	7757	769.446287602715	2
0	7759	769.457710906433	3
0	7760	769.623028518318	2
0	7765	770.133809311129	1
0	7766	770.133809311129	0
0	7782	772.223242522474	1
0	7783	772.35641169279	0
0	7812	776.333282883839	1
0	7813	776.543449545455	0
0	7822	777.255852475139	1
0	7823	777.419234929422	0
0	7832	777.911777512342	1
0	7834	777.955461607139	2
0	7835	778.092068098751	1
0	7838	778.321674421357	0
0	7842	778.481022182861	1
0	7843	778.551280743963	0
0	7862	781.979344740706	1
0	7863	782.010930589907	0
0	7867	782.125542932989	1
0	7868	782.240536912513	0
0	7882	783.310508447359	1
0	7884	783.425499092171	2
0	7885	783.432915594431	1
0	7889	783.533456783574	2
0	7891	783.644154014842	3
0	7892	783.662521917037	2
0	7896	783.779173127355	3
0	7897	783.892128239643	2
0	7900	784.121734562249	1
0	7904	784.289009807144	2
0	7905	784.351340884855	1
0	7908	784.580947207461	0
0	7912	784.661546151975	1
0	7913	784.810553530067	0
0	7927	786.888599358351	1
0	7928	786.90571670835	0
0	7937	788.443840276057	1
0	7938	788.604966809242	0
0	7947	789.496996520912	1
0	7948	789.692511341272	0
0	7957	790.294327895656	1
0	7959	790.442293724409	2
0	7960	790.44633759964	1
0	7963	790.675943922246	0
0	7972	791.950108376702	1
0	7973	791.951845594187	0
0	7977	791.958514014971	1
0	7978	792.181451916793	0
0	7982	792.196416744271	1
0	7983	792.411058239399	0
0	7997	793.406320994822	1
0	7998	793.576091525494	0
0	8002	793.606511839255	1
0	8004	793.774801626792	2
0	8005	793.8056978481	1
0	8008	794.035304170706	0
0	8017	794.708963001633	1
0	8018	794.735661488421	0
0	8022	794.838350965635	1
0	8024	794.904781553889	2
0	8025	794.965267811027	1
0	8028	795.194874133633	0
0	8042	796.46586300018	1
0	8044	796.558296120286	2
0	8046	796.594557923608	3
0	8047	796.683462190572	2
0	8051	796.769739894659	3
0	8052	796.913068513178	2
0	8056	796.91544512609	3
0	8057	797.142674835784	2
0	8061	797.283761253398	3
0	8062	797.37228115839	2
0	8066	797.409282425624	3
0	8067	797.601887480996	2
0	8069	797.601887480996	1
0	8071	797.831493803602	0
0	8080	799.056887586362	1
0	8081	799.137910992568	0
0	8115	803.530509642225	1
0	8116	803.532457885451	0
0	8122	803.840273819621	1
0	8123	804.043238678262	0
0	8131	804.765856134177	1
0	8132	804.946763315137	0
0	8166	808.599681539667	1
0	8168	808.616534284603	2
0	8170	808.621381312974	3
0	8171	808.634597489981	2
0	8174	808.864203812587	1
0	8178	808.951033718482	2
0	8180	808.991207913216	3
0	8181	809.093810135193	2
0	8184	809.323416457799	1
0	8188	809.408498596845	2
0	8189	809.553022780405	1
0	8192	809.782629103011	0
0	8196	809.829018424617	1
0	8197	810.012235425617	0
0	8206	810.64520934482	1
0	8207	810.664813941154	0
0	8236	813.777567063568	1
0	8237	813.922481502071	0
0	8241	814.063824140441	1
0	8243	814.095541913523	2
0	8244	814.152087824677	1
0	8248	814.311309279721	2
0	8250	814.313614228057	3
0	8251	814.381694147283	2
0	8255	814.3893002507	3
0	8257	814.469334395295	4
0	8258	814.611300469889	3
0	8261	814.840906792495	2
0	8265	814.919343515774	3
0	8267	815.022464854425	4
0	8268	815.070513115101	3
0	8270	815.070513115101	2
0	8272	815.300119437707	1
0	8275	815.529725760313	0
0	8294	817.845072360648	1
0	8295	818.008707209567	0
0	8309	819.373710991939	1
0	8311	819.489818732927	2
0	8312	819.531612955411	1
0	8315	819.761219278017	0
0	8324	821.463465200416	1
0	8326	821.530638152685	2
0	8327	821.690004206442	1
0	8331	821.907949479112	2
0	8332	821.919610529048	1
0	8336	822.053413683212	2
0	8337	822.149216851654	1
0	8340	822.37882317426	0
0	8354	824.526352203313	1
0	8355	824.568944323467	0
0	8359	824.727745881976	1
0	8360	824.798550646073	0
0	8369	825.454933438935	1
0	8370	825.455293568378	0
0	8374	825.638310633499	1
0	8375	825.684899890984	0
0	8384	826.740662819778	1
0	8385	826.924295752681	0
0	8454	837.729403084954	1
0	8455	837.814835946642	0
0	8464	839.384211685701	1
0	8465	839.505958703027	0
0	8469	839.534645161427	1
0	8470	839.735565025633	0
0	8480	841.586681907211	1
0	8481	841.762992333578	0
0	8485	841.79785063949	1
0	8486	841.992598656184	0
0	8490	842.174756155153	1
0	8491	842.22220497879	0
0	8500	842.923539233711	1
0	8501	842.977844327386	0
0	8530	847.489708404269	1
0	8531	847.531164231616	0
0	8535	847.735838219693	1
0	8536	847.760770554222	0
0	8555	849.168981951736	1
0	8557	849.264910100247	2
0	8558	849.307432649206	1
0	8561	849.537038971812	0
0	8565	849.586912201036	1
0	8566	849.766645294418	0
0	8570	849.821881548945	1
0	8571	849.996251617024	0
0	8575	850.095215048011	1
0	8577	850.182652397539	2
0	8579	850.215435044186	3
0	8580	850.22585793963	2
0	8584	850.274815125405	3
0	8586	850.33988159105	4
0	8587	850.455464262236	3
0	8590	850.685070584842	2
0	8593	850.914676907448	1
0	8595	850.914676907448	0
0	8618	853.358119251603	1
0	8620	853.436757926226	2
0	8621	853.557070067008	1
0	8625	853.663466389351	2
0	8627	853.680672825051	3
0	8628	853.786676389614	2
0	8631	854.01628271222	1
0	8635	854.083669876572	2
0	8637	854.150446577114	3
0	8638	854.245889034826	2
0	8641	854.475495357432	1
0	8645	854.59099918655	2
0	8646	854.705101680038	1
0	8649	854.934708002644	0
0	8658	855.820674566748	1
0	8659	855.909694278049	0
0	8663	856.099548510891	1
0	8664	856.139300600655	0
0	8668	856.160213905072	1
0	8669	856.368906923261	0
0	8673	856.463717274312	1
0	8674	856.598513245867	0
0	8678	856.634757078286	1
0	8679	856.828119568473	0
0	8693	857.66846994742	1
0	8694	857.856050227357	0
0	8703	860.30983440569	1
0	8705	860.344493251956	2
0	8706	860.449843509339	1
0	8709	860.679449831945	0
0	8728	862.764626858232	1
0	8729	862.966207056341	0
0	8738	863.682405438012	1
0	8739	863.717906189858	0
0	8758	865.514940771105	1
0	8759	865.717890464221	0
0	8768	866.626780896602	1
0	8769	866.661859713894	0
0	8773	866.788365702662	1
0	8775	866.828288501463	2
0	8777	866.841688895004	3
0	8778	866.8914660365	2
0	8781	867.121072359106	1
0	8784	867.350678681712	0
0	8793	867.967671094546	1
0	8794	868.016556408647	0
0	8818	870.766822582124	1
0	8819	870.967067302701	0
0	8823	871.078597097427	1
0	8824	871.196673625307	0
0	8828	871.337115711376	1
0	8832	871.483292602679	2
0	8834	871.642174975527	3
0	8835	871.707454418118	2
0	8838	871.916213449806	3
0	8839	871.937060740724	2
0	8843	872.132134904046	3
0	8844	872.16666706333	2
0	8847	872.396273385936	1
0	8851	872.501713452074	2
0	8852	872.625879708542	1
0	8856	872.645209357317	2
0	8857	872.855486031148	1
0	8861	873.017477643443	2
0	8862	873.085092353754	1
0	8865	873.31469867636	0
0	8874	874.158811531333	1
0	8875	874.213974889578	0
0	8904	879.500349920935	1
0	8906	879.658360101249	2
0	8907	879.682142792969	1
0	8910	879.911749115575	0
0	8934	881.666583900684	1
0	8936	881.769703698219	2
0	8937	881.808395266703	1
0	8940	882.038001589309	0
0	8944	882.202567423034	1
0	8945	882.267607911915	0
0	8954	882.732711252783	1
0	8955	882.74071791318	0
0	8959	882.817653990922	1
0	8960	882.970324235786	0
0	8969	883.538483025562	1
0	8970	883.647958909707	0
0	9009	888.461716766263	1
0	9010	888.639130010421	0
0	9029	891.059041984619	1
0	9031	891.126436904626	2
0	9032	891.227751529284	1
0	9036	891.32133321257	2
0	9037	891.45735785189	1
0	9040	891.686964174496	0
0	9044	891.73403669717	1
0	9045	891.916570497102	0
0	9049	891.966092397782	1
0	9050	892.146176819708	0
0	9054	892.27442724637	1
0	9055	892.375783142314	0
0	9059	892.478306119451	1
0	9060	892.60538946492	0
0	9084	894.56911571557	1
0	9085	894.596530640865	0
0	9099	895.348813686845	1
0	9101	895.468331815653	2
0	9103	895.552737435162	3
0	9104	895.578162667938	2
0	9108	895.802652506382	3
0	9109	895.807768990544	2
0	9112	896.03737531315	1
0	9115	896.266981635756	0
0	9129	898.651946163845	1
0	9131	898.871387432211	2
0	9132	898.881376010312	1
0	9136	899.099395553453	2
0	9137	899.110982332918	1
0	9140	899.340588655524	0
0	9144	899.490969224177	1
0	9145	899.57019497813	0
0	9149	899.667690511263	1
0	9150	899.799801300736	0
0	9220	908.372765857409	1
0	9221	908.56636005188	0
0	9240	910.909399803925	1
0	9242	911.030167092167	2
0	9243	911.112694247525	1
0	9246	911.342300570131	0
0	9255	913.321566926928	1
0	9257	913.376028061487	2
0	9258	913.543273346727	1
0	9262	913.54967938009	2
0	9264	913.715471261989	3
0	9265	913.772879669333	2
0	9269	913.818145140639	3
0	9270	914.002485991939	2
0	9274	914.161490685436	3
0	9275	914.232092314545	2
0	9279	914.376098047236	3
0	9281	914.384330121435	4
0	9282	914.461698637151	3
0	9284	914.461698637151	2
0	9286	914.691304959757	1
0	9290	914.70393904282	2
0	9291	914.920911282363	1
0	9294	915.150517604969	0
0	9328	918.101614539688	1
0	9329	918.300254353966	0
0	9348	920.302594786495	1
0	9350	920.310132906679	2
0	9352	920.404045484476	3
0	9353	920.499148407288	2
0	9357	920.707116592427	3
0	9358	920.728754729894	2
0	9361	920.9583610525	1
0	9364	921.187967375106	0
0	9373	922.319684152942	1
0	9374	922.446235963577	0
0	9393	923.778519622222	1
0	9394	923.97829033075	0
0	9413	926.23032071679	1
0	9414	926.382226611954	0
0	9443	929.723504624689	1
0	9445	929.829900730453	2
0	9446	929.837321024026	1
0	9450	929.918494446906	2
0	9451	930.066927346632	1
0	9454	930.296533669238	0
0	9458	930.439938298917	1
0	9459	930.526139991844	0
0	9473	931.628801152535	1
0	9474	931.632799186288	0
0	9503	934.156932228193	1
0	9504	934.233815895989	0
0	9523	936.75822705334	1
0	9525	936.809684691721	2
0	9526	936.813284547416	1
0	9529	937.042890870022	0
0	9533	937.232624503145	1
0	9537	937.331255663994	2
0	9538	937.553671662833	1
0	9541	937.662813408842	2
0	9542	937.783277985439	1
0	9546	937.969871529684	2
0	9547	938.012884308045	1
0	9550	938.242490630651	0
0	9554	938.406151442715	1
0	9555	938.472096953257	0
0	9584	941.270935358586	1
0	9585	941.429073515764	0
0	9594	941.783528555718	1
0	9595	941.918720187749	0
0	9604	942.979779929611	1
0	9606	943.157749482986	2
0	9607	943.203413030754	1
0	9611	943.246804103606	2
0	9612	943.43301935336	1
0	9615	943.662625675966	0
0	9624	944.082173914168	1
0	9625	944.263717693816	0
0	9644	946.000660708814	1
0	9646	946.016362246025	2
0	9647	946.08429148208	1
0	9651	946.128433206452	2
0	9653	946.226508395436	3
0	9655	946.242407916413	4
0	9656	946.313897804686	3
0	9659	946.543504127292	2
0	9662	946.773110449898	1
0	9665	947.002716772504	0
0	9677	948.279777978421	1
0	9678	948.344829728357	0
0	9687	948.773918605835	1
0	9688	948.984063915865	0
0	9692	949.126040019127	1
0	9694	949.154181983603	2
0	9695	949.213670238471	1
0	9699	949.239516536032	2
0	9700	949.443276561077	1
0	9703	949.672882883683	0
0	9707	949.725456682791	1
0	9708	949.902489206289	0
0	9712	950.051354647659	1
0	9713	950.132095528895	0
0	9722	950.6563473177	1
0	9723	950.680258282552	0
0	9752	954.727191329919	1
0	9753	954.934233285575	0
0	9787	958.673950193788	1
0	9788	958.893342139422	0
0	9797	959.660438948426	1
0	9798	959.785081645666	0
0	9802	959.956189560259	1
0	9803	960.014687968272	0
0	9822	962.384848285559	1
0	9823	962.49284768864	0
0	9837	964.254654411657	1
0	9838	964.289470970136	0
0	9842	964.463392017164	1
0	9843	964.519077292742	0
0	9852	965.088080178037	1
0	9853	965.103042036639	0
0	9872	966.970334809354	1
0	9873	967.012726660751	0
0	9882	967.990367025537	1
0	9883	968.003891623802	0
0	9889	968.489182132605	1
0	9890	968.514672416613	0
0	9898	969.316287353835	1
0	9899	969.35146177002	0
0	9913	970.437775381415	1
0	9914	970.566561451186	0
0	9938	973.469935509312	1
0	9939	973.601508730154	0
0	9943	973.603437580352	1
0	9944	973.83111505276	0
0	9958	974.567976915105	1
0	9959	974.761611531034	0
0	9973	975.643803121278	1
0	9974	975.673996932971	0
0	10003	979.93981163461	1
0	10004	980.079580191411	0
0	10008	980.261955807318	1
0	10010	980.277381625949	2
0	10011	980.309186514017	1
0	10014	980.538792836623	0
0	10018	980.668309102832	1
0	10020	980.696000933417	2
0	10022	980.720912985467	3
0	10023	980.768399159229	2
0	10026	980.998005481835	1
0	10029	981.227611804441	0
0	10038	981.927758262595	1
0	10040	982.058620779611	2
0	10041	982.063824054433	1
0	10044	982.293430377039	0
0	10053	982.792337601911	1
0	10054	982.892771866493	0
0	10063	984.02953509715	1
0	10064	984.050348884071	0
0	10073	984.491398201423	1
0	10075	984.583558626098	2
0	10076	984.703037882862	1
0	10080	984.863803675443	2
0	10081	984.932644205468	1
0	10084	985.162250528074	0
0	10088	985.226712666703	1
0	10090	985.287542626065	2
0	10091	985.39185685068	1
0	10095	985.402679755119	2
0	10097	985.45724184705	3
0	10099	985.546327320975	4
0	10100	985.621463173286	3
0	10103	985.851069495892	2
0	10106	986.080675818498	1
0	10108	986.080675818498	0
0	10111	986.147850176613	1
0	10112	986.310282141104	0
0	10116	986.492211578372	1
0	10117	986.53988846371	0
0	10166	994.466866600795	1
0	10167	994.494413613507	0
0	10176	994.864762967955	1
0	10177	995.090348677681	0
0	10191	997.580268786615	1
0	10192	997.737742698623	0
0	10201	998.175680704219	1
0	10202	998.397905167551	0
0	10206	998.626595532984	1
0	10207	998.627511490157	0
0	10211	998.64627526849	1
0	10212	998.857117812763	0
0	10221	999.499442790359	1
0	10223	999.565443667122	2
0	10224	999.718343930117	1
0	10228	999.765921958336	2
0	10230	999.843807129519	3
0	10231	999.947950252723	2
1	8	1.171029991245	0.115498298834
1	11	1.400636313851	0.313742392775
1	33	4.269239086419	0.170322028376
1	40	4.498845409025	0.370623530695
1	45	4.728451731631	0.37176441797
1	50	4.958058054237	0.579515532502
1	55	5.187664376843	0.648684885626
1	57	5.187664376843	0.376332952011
1	59	5.417270699449	0.346585346374
1	71	7.474065781004	0.122497254541
1	78	7.70367210361	0.304774010418
1	81	7.933278426216	0.38195783699
1	84	8.162884748822	0.546453724412
1	119	11.661555513916	0.144029801131
1	124	11.891161836522	0.175226649962
1	131	12.120768159128	0.188939250563
1	134	12.350374481734	0.396389945986
1	144	13.244348253854	0.022929355473
1	189	17.30190478452	0.207059775799
1	229	21.970255726829	0.119445221273
1	236	22.199862049435	0.195648546391
1	239	22.429468372041	0.347953153188
1	244	22.659074694647	0.145446443211
1	254	24.633250087409	0.156581997301
1	274	27.43444124826	0.207782566914
1	289	29.696855569499	0.093373913307
1	294	29.926461892105	0.15439429315
1	324	34.019723594622	0.208022701044
1	339	34.924266541641	0.1009097199
1	344	35.153872864247	0.148471147115
1	360	36.649844367493	0.021677299765
1	367	36.879450690099	0.210654738429
1	374	37.109057012705	0.386953969332
1	377	37.338663335311	0.270158925924
1	382	37.568269657917	0.468134855222
1	387	37.797875980523	0.428870918151
1	390	38.027482303129	0.417936435095
1	395	38.257088625735	0.017139355875
1	415	40.995663028752	0.024747359417
1	425	41.524932416669	0.018781479442
1	435	42.324397318512	0.086065348087
1	465	44.795224401857	0.112426869973
1	472	45.024830724463	0.102955464662
1	475	45.254437047069	0.267278137517
1	490	47.369218905751	0.050897445774
1	495	47.598825228357	0.223435484067
1	500	47.828431550963	0.047177444372
1	510	48.972093700874	0.038529543756
1	515	49.20170002348	0.218721887904
1	527	50.011769386232	0.091889037417
1	530	50.241375708838	0.301322757829
1	558	51.515249626501	0.203586519919
1	561	51.744855949107	0.371600986255
1	564	51.974462271713	0.600369874693
1	571	52.204068594319	0.775394476318
1	573	52.204068594319	0.694058910615
1	574	52.204068594319	0.224960262346
1	576	52.433674916925	0.269501584817
1	583	52.663281239531	0.03570816005
1	588	52.892887562137	0.256027015908
1	591	53.122493884743	0.307858294582
1	596	53.352100207349	0.038503789577
1	626	56.823798230179	0.091282005933
1	641	58.282207598403	0.227754672629
1	646	58.511813921009	0.124115753056
1	655	58.741420243615	0.159736964881
1	658	58.971026566221	0.232416875507
1	665	59.200632888827	0.461092227423
1	668	59.430239211433	0.407246019422
1	671	59.659845534039	0.580019183433
1	678	59.889451856645	0.193988779511
1	681	60.119058179251	0.32997287864
1	686	60.348664501857	0.015178003759
1	691	60.578270824463	0.168470141975
1	706	61.68217589354	0.059248860558
1	717	62.192956686351	0.494281951962
1	719	62.422563008957	0.40077920479
1	722	62.652169331563	0.57947795169
1	727	62.881775654169	0.048201018249
1	776	70.514348610954	0.152189812367
1	781	70.74395493356	0.309557296648
1	784	70.973561256166	0.536778996268
1	787	71.203167578772	0.554602257222
1	794	71.432773901378	0.137897106274
1	797	71.662380223984	0.234453340569
1	804	71.89198654659	0.228007488813
1	809	72.121592869196	0.320884332586
1	814	72.351199191802	0.346050919497
1	817	72.580805514408	0.369958941846
1	822	72.810411837014	0.012862604785
1	832	73.689885663645	0.167172098586
1	842	74.173167749906	0.110789968074
1	847	74.402774072512	0.14201085936
1	862	76.398905104945	0.12049925314
1	867	76.628511427551	0.093239540244
1	917	85.484451704339	0.165563483947
1	927	86.509426527981	0.0952385797
1	937	87.957075813842	0.213041053759
1	997	97.269542214761	0.143491998661
1	1002	97.499148537367	0.082943401755
1	1007	97.728754859973	0.138160085785
1	1017	98.32940244288	0.049854059456
1	1024	98.559008765486	0.20175921131
1	1029	98.788615088092	0.232881892596
1	1032	99.018221410698	0.42863836481
1	1037	99.247827733304	0.066614386996
1	1052	101.042918254764	0.194231477072
1	1057	101.27252457737	0.068013417954
1	1066	101.783305370181	0.083774417933
1	1070	102.012911692787	0.30661390883
1	1073	102.242518015393	0.378327352554
1	1088	103.75816441551	0.064465609697
1	1098	105.754587067315	0.151913560872
1	1113	106.637623517543	0.010282337012
1	1152	109.484622335971	0.192246690807
1	1157	109.714228658577	0.363532505394
1	1162	109.943834981183	0.572748429745
1	1165	110.173441303789	0.540877239411
1	1168	110.403047626395	0.587597032238
1	1180	111.281319445786	0.189846157843
1	1183	111.510925768392	0.240721489084
1	1218	115.164987524297	0.048283108112
1	1223	115.394593846903	0.200557372123
1	1233	116.357241841824	0.02938129084
1	1243	116.968682879544	0.10127557504
1	1248	117.19828920215	0.06681512882
1	1258	118.577765000369	0.151850852441
1	1263	118.807371322975	0.108145942322
1	1270	119.036977645581	0.211079598248
1	1273	119.266583968187	0.292915221202
1	1295	122.98165232989	0.168882195981
1	1302	123.211258652496	0.238676614836
1	1305	123.440864975102	0.293882442265
1	1308	123.670471297708	0.486239882861
1	1330	126.884848271425	0.224831146047
1	1333	127.114454594031	0.393408883942
1	1338	127.344060916637	0.064541244807
1	1343	127.573667239243	0.133626746129
1	1360	130.873232505507	0.154096491487
1	1365	131.102838828113	0.266116760382
1	1368	131.332445150719	0.379793741892
1	1383	132.747920620441	0.014694687808
1	1395	135.624890505644	0.221256055692
1	1398	135.85449682825	0.292418950597
1	1419	137.716519060719	0.273068718344
1	1423	137.946125383325	0.405459229325
1	1426	138.175731705931	0.549998889648
1	1429	138.405338028537	0.475198780968
1	1436	138.634944351143	0.195145767254
1	1439	138.864550673749	0.374729705468
1	1449	139.921625500328	0.087527495872
1	1459	140.876845367939	0.066465689179
1	1466	141.106451690545	0.150818958626
1	1469	141.336058013151	0.245556299844
1	1474	141.565664335757	0.216857780494
1	1504	143.359963320446	0.009758418219
1	1534	147.331355198762	0.069069571403
1	1589	154.883073496805	0.128201013409
1	1601	155.795492183056	0.046200913935
1	1606	156.025098505662	0.251984713216
1	1611	156.254704828268	0.336802249866
1	1616	156.484311150874	0.437923150229
1	1621	156.71391747348	0.271327812054
1	1624	156.943523796086	0.366061103613
1	1659	159.397116195119	0.153474048802
1	1664	159.626722517725	0.213076712529
1	1684	163.050223823016	0.156287447778
1	1694	163.725826270034	0.000503436303
1	1709	166.123575226618	0.180918982571
1	1744	169.315282332997	0.129641934713
1	1754	170.296701657392	0.164682984648
1	1780	173.30125924698	0.183817222258
1	1802	175.442022587518	0.142298033489
1	1807	175.671628910124	0.302814401144
1	1812	175.90123523273	0.421516025041
1	1817	176.130841555336	0.451747559247
1	1822	176.360447877942	0.408688854059
1	1825	176.590054200548	0.246468298637
1	1845	177.979818931837	0.049916053649
1	1852	178.209425254443	0.221976842903
1	1857	178.439031577049	0.404875171845
1	1860	178.668637899655	0.27559469581
1	1895	183.019451433456	0.095347264216
1	1902	183.249057756062	0.18860084406
1	1905	183.478664078668	0.248985308858
1	1910	183.708270401274	0.10312159031
1	1915	183.93787672388	0.050850802994
1	1925	185.065481792979	0.036879553475
1	1930	185.295088115585	0.187674207797
1	1935	185.524694438191	0.155033723208
1	1955	187.417117762939	0.151045399336
1	1960	187.646724085545	0.196000665898
1	1977	188.458067507628	0.091430335148
1	1980	188.687673830234	0.241875878203
1	1985	188.91728015284	0.125323151225
1	1995	189.566204593426	0.12463396648
1	2015	191.575620200381	0.141785522476
1	2030	193.042603632626	0.066389380089
1	2035	193.272209955232	0.204786821129
1	2052	194.934619856133	0.166699912037
1	2055	195.164226178739	0.332225142305
1	2060	195.393832501345	0.217382072112
1	2100	200.062130954141	0.053210589434
1	2117	203.14147437936	0.477968695711
1	2126	204.417519219644	0.021596374312
1	2170	209.620953831347	0.141325686696
1	2173	209.850560153953	0.367213977685
1	2176	210.080166476559	0.57768444879
1	2181	210.309772799165	0.064794758925
1	2191	211.456478213667	0.013784111194
1	2206	212.427427949791	0.163268863479
1	2216	212.938654107249	0.048153211389
1	2226	213.677139649265	0.098857640956
1	2236	214.368309084471	0.058184624096
1	2251	215.357163875787	0.212711327936
1	2265	215.897881605851	0.229591676063
1	2268	216.127487928457	0.390926362063
1	2275	216.357094251063	0.530010720763
1	2278	216.586700573669	0.293423045163
1	2281	216.816306896275	0.518481794711
1	2291	217.733403446259	0.123556893346
1	2321	221.477883685567	0.088237480511
1	2331	222.951689240699	0.06570563044
1	2340	223.181295563305	0.076040440137
1	2343	223.410901885911	0.304063642891
1	2346	223.640508208517	0.463470252829
1	2358	224.278075485609	0.186075460887
1	2363	224.507681808215	0.284069003532
1	2368	224.737288130821	0.399388178268
1	2373	224.966894453427	0.416107557517
1	2376	225.196500776033	0.281650475822
1	2381	225.426107098639	0.120799322004
1	2401	227.367158099161	0.109726430831
1	2406	227.596764421767	0.022672637318
1	2436	231.195027714836	0.055237081862
1	2456	233.272183129617	0.161883391174
1	2468	234.639044650835	0.490721648213
1	2477	235.207540857429	0.040342131842
1	2492	236.497243996708	0.042593530929
1	2502	237.121544387733	0.091221733279
1	2507	237.351150710339	0.113201134215
1	2512	237.580757032945	0.180870201269
1	2532	239.768271584692	0.055669811424
1	2539	239.997877907298	0.171097412059
1	2542	240.227484229904	0.260445444444
1	2562	242.32008376403	0.05699534553
1	2567	242.549690086636	0.004851218063
1	2617	248.096655064475	0.089776329129
1	2634	250.354109279476	0.225146389047
1	2639	250.583715602082	0.340715369651
1	2642	250.813321924688	0.237597372412
1	2647	251.042928247294	0.030966766952
1	2657	252.190679264945	0.097183562668
1	2717	260.441693624222	0.224334993745
1	2764	265.652337199253	0.154271697481
1	2767	265.881943521859	0.365934170449
1	2772	266.111549844465	0.046190953259
1	2782	266.648112550441	0.108292289909
1	2787	266.877718873047	0.002567790461
1	2802	268.091185458731	0.052690838808
1	2819	270.299612312343	0.454854400144
1	2833	271.535540847736	0.066608606037
1	2843	272.288747583232	0.106351389004
1	2868	274.81000903939	0.173815578102
1	2913	280.996739657649	0.226372360666
1	2918	281.226345980255	0.096719276683
1	2923	281.455952302861	0.071206162111
1	2928	281.685558625467	0.154441906822
1	2950	282.757439665531	0.225765581861
1	2953	282.987045988137	0.273387521614
1	2968	287.27294467458	0.13843987517
1	2980	287.829538075641	0.050316436925
1	2983	288.059144398247	0.230483213728
1	3000	291.457178443798	0.20838375404
1	3005	291.686784766404	0.24146196616
1	3010	291.91639108901	0.317921887936
1	3015	292.145997411616	0.367631214774
1	3018	292.375603734222	0.436777058025
1	3033	294.825260712095	0.166059988048
1	3043	295.854988477098	0.212758869126
1	3050	296.084594799704	0.034535709461
1	3053	296.31420112231	0.2597309756
1	3068	297.478184293826	0.068528978724
1	3073	297.707790616432	0.01306153548
1	3095	299.447547364486	0.197570953195
1	3098	299.677153687092	0.27111570297
1	3135	304.288288117857	0.191398050109
1	3138	304.517894440463	0.26917219402
1	3148	305.145829887451	0.170151177286
1	3153	305.375436210057	0.132942177161
1	3189	310.664206782893	0.039453975583
1	3194	310.893813105499	0.196396050139
1	3224	315.030718507958	0.039521843197
1	3233	315.260324830564	0.1077330556
1	3236	315.48993115317	0.283900612334
1	3239	315.719537475776	0.467594583274
1	3249	316.251354430537	0.011193530862
1	3279	319.563245750833	0.088747571192
1	3284	319.792852073439	0.146866494781
1	3289	320.022458396045	0.152946856077
1	3304	321.990522454094	0.083793157173
1	3314	323.057712737167	0.224091350552
1	3321	323.287319059773	0.211898378168
1	3324	323.516925382379	0.437357317745
1	3334	325.141425803261	0.177076369237
1	3354	327.682645673732	0.077171498111
1	3399	333.88654155712	0.216303057719
1	3419	336.2904925831	0.101091408163
1	3424	336.520098905706	0.123095241742
1	3434	337.13591344309	0.201506683296
1	3444	338.124820732707	0.220219434099
1	3454	338.60469857643	0.045536131571
1	3464	339.465961698459	0.036760462571
1	3469	339.695568021065	0.229314658124
1	3479	340.377239182021	0.177745919205
1	3489	341.19829885807	0.199766242689
1	3496	341.427905180676	0.126211572626
1	3501	341.657511503282	0.289340145059
1	3508	341.887117825888	0.456331392622
1	3511	342.116724148494	0.439114366904
1	3516	342.3463304711	0.511875111854
1	3525	342.857111263911	0.701636115651
1	3526	342.857111263911	0.373335572321
1	3528	343.086717586517	0.539781707593
1	3543	344.973133749695	0.099778959511
1	3558	347.054413424931	0.138566541153
1	3570	349.04540341016	0.105956126997
1	3573	349.275009732766	0.323548606367
1	3583	350.057145968298	0.023058922751
1	3588	350.286752290904	0.149114444438
1	3608	351.994552276868	0.181865862508
1	3613	352.224158599474	0.166666801059
1	3623	352.930915886725	0.198584985662
1	3633	353.788495605762	0.189095277302
1	3640	354.018101928368	0.194168381552
1	3643	354.247708250974	0.323620395147
1	3658	356.356937990728	0.179853921216
1	3673	357.575969943154	0.092167294462
1	3688	359.200432421683	0.070487885128
1	3708	362.273988350078	0.146930711538
1	3723	365.20142261562	0.092838159927
1	3748	368.813693972487	0.080120339392
1	3773	371.034055653895	0.228490803259
1	3838	384.081457663661	0.096344700496
1	3863	386.663759056583	0.101201369988
1	3868	386.893365379189	0.072258579353
1	3877	387.404146172	0.224393989177
1	3881	387.633752494606	0.256183980799
1	3884	387.863358817212	0.38705412713
1	3899	388.802426717362	0.007283749812
1	3910	389.032033039968	0.203799844332
1	3915	389.261639362574	0.363798872934
1	3918	389.49124568518	0.533323034746
1	3921	389.720852007786	0.762765888993
1	3923	389.720852007786	0.483078209893
1	3937	391.57509498185	0.099710979606
1	3957	392.866004615501	0.149476726124
1	3962	393.095610938107	0.06672353449
1	3987	396.401315017297	0.186716757338
1	3997	397.5622406086	0.176455471368
1	4007	399.375006596404	0.17779832174
1	4019	400.450605711957	0.186147064312
1	4022	400.680212034563	0.243913213142
1	4027	400.909818357169	0.227768667767
1	4047	402.761371450975	0.104908364333
1	4069	405.255776791886	0.187831553582
1	4072	405.485383114492	0.239492182128
1	4097	408.034397344846	0.203948048058
1	4104	408.264003667452	0.122796580402
1	4109	408.493609990058	0.266962072775
1	4114	408.723216312664	0.270837972066
1	4119	408.95282263527	0.252005820126
1	4122	409.182428957876	0.447207083593
1	4132	410.146119631142	0.186413033194
1	4137	410.375725953748	0.070902934811
1	4142	410.605332276354	0.191082020146
1	4152	411.412386508222	0.184268695779
1	4162	412.130949020294	0.027854141564
1	4167	412.3605553429	0.152636540957
1	4182	413.584880769269	0.171880558675
1	4187	413.814487091875	0.164485181858
1	4197	415.57743410631	0.051239751248
1	4202	415.807040428916	0.04812964094
1	4207	416.036646751522	0.121804676608
1	4214	416.266253074128	0.177223673144
1	4217	416.495859396734	0.318564177324
1	4229	417.261917598424	0.056961508866
1	4235	417.49152392103	0.056424697581
1	4238	417.721130243636	0.278624430996
1	4268	421.516305011317	0.021522427579
1	4273	421.745911333923	0.210195257121
1	4283	422.231487516782	0.206625192172
1	4288	422.461093839388	0.202796305808
1	4293	422.690700161994	0.163243690984
1	4303	423.663127372909	0.004814508113
1	4308	423.892733695515	0.161874202621
1	4313	424.122340018121	0.111357244341
1	4333	425.874358118641	0.009569989651
1	4353	427.46019254009	0.047791208736
1	4358	427.689798862696	0.120073038794
1	4368	428.34378051661	0.04016425314
1	4373	428.573386839216	0.074331842283
1	4408	434.164851729291	0.090718861298
1	4413	434.394458051897	0.212952050029
1	4438	437.94557514769	0.065740427663
1	4448	439.217368964311	0.034371574246
1	4458	440.601337404296	0.023916151385
1	4483	443.694291112429	0.224150216572
1	4493	444.526253929907	0.190167950411
1	4498	444.755860252513	0.157256908535
1	4508	445.326875176353	0.069782246915
1	4513	445.556481498959	0.136272837404
1	4518	445.786087821565	0.095848384823
1	4538	447.479687684483	0.107915083391
1	4548	449.084188935898	0.087095971573
1	4555	449.313795258504	0.114448130322
1	4560	449.54340158111	0.29215570014
1	4563	449.773007903716	0.303837655941
1	4573	450.581306429116	0.124256247603
1	4596	453.636851216337	0.218497756251
1	4599	453.866457538943	0.439423431011
1	4611	454.393893572228	0.042153414991
1	4618	454.623499894834	0.269264805114
1	4621	454.85310621744	0.390932215041
1	4626	455.082712540046	0.52685870735
1	4629	455.312318862652	0.441807498649
1	4654	458.636331258834	0.059021802113
1	4679	461.716100242331	0.020355941483
1	4684	461.945706564937	0.121273343194
1	4694	462.543688490972	0.16049054713
1	4704	463.042684921038	0.164729666834
1	4779	477.52510159809	0.021580076678
1	4789	479.158094602451	0.178487388141
1	4824	484.372986797669	0.190281135805
1	4861	488.317123316932	0.020634765615
1	4864	488.546729639538	0.24547042101
1	4884	491.203523059428	0.153789108541
1	4894	492.546338139824	0.151646827778
1	4931	496.250318100251	0.147485161367
1	4940	497.145712629805	0.013063264064
1	4965	499.217702483618	0.025567297765
1	4985	501.290742548274	0.221219985271
1	5015	505.156635560224	0.005635832743
1	5035	507.387377577429	0.15570628583
1	5065	510.213898117987	0.065337456455
1	5090	514.4175849301	0.161549665316
1	5115	518.238856609543	0.179615386196
1	5125	519.774296210101	0.139462863796
1	5132	520.003902532707	0.196741581438
1	5135	520.233508855313	0.364097078801
1	5147	520.813211183172	0.154514604313
1	5150	521.042817505778	0.354350291302
1	5172	522.483011854951	0.210268722968
1	5177	522.712618177557	0.265270542001
1	5182	522.942224500163	0.234037629773
1	5185	523.171830822769	0.233825588797
1	5192	523.401437145375	0.110070869515
1	5195	523.631043467981	0.239731665738
1	5219	525.907302803483	0.123130936288
1	5222	526.136909126089	0.344229642648
1	5227	526.366515448695	0.538786354918
1	5230	526.596121771301	0.361526790761
1	5270	530.202456383863	0.168050683689
1	5288	531.385593738259	0.414346620971
1	5290	531.615200060865	0.643083588491
1	5292	531.615200060865	0.312448425138
1	5294	531.844806383471	0.539809569107
1	5299	532.074412706077	0.061347810681
1	5314	533.028908552157	0.028890621016
1	5324	534.393429056002	0.015311787294
1	5329	534.623035378608	0.111268089657
1	5338	534.852641701214	0.173153171102
1	5341	535.08224802382	0.35732004358
1	5346	535.311854346426	0.500686741316
1	5349	535.541460669032	0.458509873895
1	5384	539.112870670275	0.002107610094
1	5394	540.043581030162	0.031810091655
1	5414	541.811192626556	0.118217356914
1	5433	543.285579721275	0.17772265515
1	5440	543.515186043881	0.355900500955
1	5443	543.744792366487	0.46570494227
1	5446	543.974398689093	0.682369435727
1	5448	543.974398689093	0.54678334139
1	5452	544.204005011699	0.197758989325
1	5462	545.295602064201	0.138858538653
1	5477	546.834109641668	0.125580799778
1	5502	550.751206552022	0.185335540267
1	5512	551.511388698583	0.034367269845
1	5522	553.599771593546	0.170762535139
1	5544	557.719611127934	0.139694411853
1	5547	557.94921745054	0.281448586554
1	5594	565.245023601909	0.119843396503
1	5597	565.474629924515	0.314373238164
1	5602	565.704236247121	0.143946768333
1	5607	565.933842569727	0.124740836417
1	5617	567.752985970341	0.182942258396
1	5641	569.806247426439	0.331205287331
1	5643	570.035853749045	0.34117863848
1	5658	572.622924902424	0.209481917482
1	5663	572.85253122503	0.08554206094
1	5668	573.082137547636	0.137291900148
1	5690	574.868438270055	0.16769259618
1	5695	575.098044592661	0.350492890083
1	5698	575.327650915267	0.263454483094
1	5713	576.199583871854	0.173168346501
1	5723	577.365600756667	0.119222590646
1	5733	577.859124070164	0.008444511947
1	5763	580.80156682968	0.227964153255
1	5772	581.031173152286	0.199540641026
1	5777	581.260779474892	0.385919077639
1	5780	581.490385797498	0.51435126429
1	5783	581.719992120104	0.564777330742
1	5793	583.77029596175	0.200666035346
1	5798	583.999902284356	0.090817854079
1	5808	584.807344026601	0.17433936117
1	5833	588.382673928512	0.102746970312
1	5838	588.612280251118	0.202440888095
1	5853	590.804846034433	0.180035860638
1	5863	591.373963158777	0.103179767774
1	5875	592.307753009595	0.226320082799
1	5878	592.537359332201	0.334522073761
1	5898	595.603117635912	0.14282857473
1	5915	598.12680483636	0.083989044978
1	5918	598.356411158966	0.310067645583
1	5925	598.586017481572	0.202860716022
1	5930	598.815623804178	0.258452564203
1	5935	599.045230126784	0.276686705714
1	5942	599.27483644939	0.36582439948
1	5945	599.504442771996	0.422525619488
1	5948	599.734049094602	0.570154749492
1	5958	600.356553244347	0.073465624225
1	5963	600.586159566953	0.182905617291
1	5968	600.815765889559	0.039577733011
1	5973	601.045372212165	0.168987839049
1	5994	602.297982616695	0.413261643388
1	5996	602.527588939301	0.495601453212
1	5999	602.757195261907	0.647771384183
1	6007	603.820498414588	0.17223732195
1	6017	604.311363595855	0.198704275849
1	6022	604.540969918461	0.092546501843
1	6052	607.292692761618	0.213430644278
1	6082	609.70659165551	0.116862347856
1	6097	610.756706386419	0.022926363362
1	6122	614.740458474064	0.072727638966
1	6127	614.97006479667	0.106940506608
1	6132	615.199671119276	0.078953701972
1	6137	615.429277441882	0.134340842186
1	6142	615.658883764488	0.062338080891
1	6159	617.544292782822	0.113474582996
1	6164	617.773899105428	0.324889715149
1	6169	618.003505428034	0.428420248682
1	6172	618.23311175064	0.429797461122
1	6177	618.462718073246	0.021090463726
1	6202	623.359084659229	0.121869609867
1	6212	624.61452085491	0.007099560619
1	6222	625.993329098472	0.148145665322
1	6237	627.131391164324	0.008126159921
1	6252	628.236890140996	0.074293049649
1	6277	631.016923515661	0.18646325641
1	6284	631.246529838267	0.17657551497
1	6291	631.476136160873	0.314131157858
1	6296	631.705742483479	0.400828305601
1	6299	631.935348806085	0.473147857966
1	6302	632.164955128691	0.627740309522
1	6312	632.752571398593	0.16194194849
1	6315	632.982177721199	0.29653071522
1	6320	633.211784043805	0.092886613078
1	6325	633.441390366411	0.106314673386
1	6340	636.417690608837	0.09982559589
1	6356	638.245555450728	0.063592180014
1	6371	639.194442778182	0.133644344865
1	6381	639.709039847551	0.10893822472
1	6386	639.938646170157	0.010069064563
1	6406	641.706833606889	0.00061062301
1	6418	642.259443083554	0.213979277924
1	6421	642.48904940616	0.234126548727
1	6446	646.001216018912	0.074211576156
1	6468	648.127799162104	0.173580897
1	6471	648.35740548471	0.278325658987
1	6476	648.587011807316	0.050210605715
1	6481	648.816618129922	0.096150432906
1	6511	651.413966832219	0.216310523351
1	6533	654.31678488053	0.152015757682
1	6536	654.546391203136	0.270557714245
1	6541	654.775997525742	0.002210862691
1	6546	655.005603848348	0.080990539262
1	6556	656.45390909491	0.12147137549
1	6566	657.119308371166	0.146265852036
1	6606	662.305852729426	0.051453830097
1	6616	663.464046955659	0.143292740678
1	6631	665.987407481485	0.129943725885
1	6636	666.217013804091	0.081884843912
1	6643	666.446620126697	0.21839585814
1	6648	666.676226449303	0.32729934737
1	6653	666.905832771909	0.341489091129
1	6658	667.135439094515	0.411181647176
1	6661	667.365045417121	0.231256317637
1	6666	667.594651739727	0.093877916623
1	6686	669.604755358928	0.099958454788
1	6698	670.349574993573	0.077812080326
1	6702	670.579181316179	0.067579781596
1	6717	671.448781101058	0.205205902833
1	6724	671.678387423664	0.170091235819
1	6729	671.90799374627	0.340011967827
1	6734	672.137600068876	0.30027035861
1	6737	672.367206391482	0.426640033924
1	6742	672.596812714088	0.024981516788
1	6752	673.388679810904	0.036433328528
1	6787	677.623904894034	0.197677351073
1	6794	677.85351121664	0.154963374992
1	6797	678.083117539246	0.339786939202
1	6804	678.312723861852	0.134234598492
1	6809	678.542330184458	0.313849720813
1	6812	678.771936507064	0.38728239913
1	6822	679.680524886443	0.00471835098
1	6827	679.910131209049	0.151625265233
1	6852	682.758660574155	0.13600831249
1	6862	683.87811716314	0.044498841928
1	6869	684.107723485746	0.210563054821
1	6872	684.337329808352	0.306273253235
1	6877	684.566936130958	0.096773333365
1	6887	686.028040199577	0.113707261035
1	6907	687.530559660139	0.2176639887
1	6912	687.760165982745	0.08189582272
1	6924	688.276054507423	0.164175765378
1	6929	688.505660830029	0.344292853361
1	6932	688.735267152635	0.302309291575
1	6957	691.926600516819	0.139211704027
1	6997	699.350589515816	0.20802300565
1	7007	699.835019907014	0.035348215163
1	7019	700.320591888738	0.095145180761
1	7022	700.550198211344	0.256849244551
1	7046	702.329204972403	0.160908986829
1	7057	702.839985765214	0.527946512946
1	7059	703.06959208782	0.756861021168
1	7061	703.06959208782	0.690051253261
1	7062	703.06959208782	0.676649506818
1	7063	703.06959208782	0.48725889262
1	7069	703.299198410426	0.222633030717
1	7072	703.528804733032	0.387779971883
1	7087	705.836018614632	0.073219857104
1	7107	708.809183197856	0.034315685533
1	7132	711.159372704722	0.063633805932
1	7151	712.159231103543	0.213234049531
1	7154	712.388837426149	0.344734499785
1	7159	712.618443748755	0.562193754725
1	7162	712.848050071361	0.427085677801
1	7167	713.077656393967	0.111677177232
1	7179	713.659665380084	0.200590675086
1	7182	713.88927170269	0.265736119996
1	7189	714.118878025296	0.050619876415
1	7194	714.348484347902	0.244175573998
1	7197	714.578090670508	0.267239231469
1	7204	714.807696993114	0.122684678049
1	7211	715.03730331572	0.276321330957
1	7214	715.266909638326	0.452911412978
1	7217	715.496515960932	0.540193810464
1	7222	715.726122283538	0.15332064699
1	7247	718.477969049378	0.017902143965
1	7269	720.818479723001	0.129318565043
1	7272	721.048086045607	0.253406175804
1	7297	723.839389853968	0.034375638639
1	7317	727.483922513957	0.225748690145
1	7322	727.713528836563	0.022592733434
1	7342	729.336564274483	0.099436345278
1	7362	731.502531098138	0.117141952464
1	7377	732.446288948264	0.043403066166
1	7402	734.978234069912	0.133794734429
1	7411	735.489014862723	0.140488397113
1	7413	735.718621185329	0.364292693342
1	7423	736.212387355738	0.096930617729
1	7460	739.881866987378	0.093702567089
1	7465	740.111473309984	0.234672688922
1	7468	740.34107963259	0.456211427768
1	7488	743.29174285649	0.024867243075
1	7493	743.521349179096	0.093334710955
1	7523	749.400512955588	0.00418807428
1	7533	750.088955092799	0.18449587152
1	7548	752.087426429081	0.029661843686
1	7558	752.731868614397	0.190167790682
1	7563	752.961474937003	0.20704657279
1	7570	753.191081259609	0.228478072945
1	7575	753.420687582215	0.353286981695
1	7578	753.650293904821	0.283922293877
1	7585	753.879900227427	0.228396181646
1	7594	754.109506550033	0.34152963189
1	7597	754.339112872639	0.445327383518
1	7602	754.568719195245	0.608697087288
1	7604	754.568719195245	0.601664947557
1	7606	754.798325517851	0.245706159269
1	7616	756.094336462646	0.119216094657
1	7626	756.899507855348	0.175633498659
1	7658	760.126884382448	0.113120737068
1	7661	760.356490705054	0.334175572764
1	7671	761.107167909817	0.019253190162
1	7686	762.156010273751	0.137880881397
1	7721	766.544270233508	0.095293867209
1	7731	767.72067850388	0.135754311524
1	7751	769.393422195712	0.156150855446
1	7760	769.623028518318	0.187952572084
1	7765	770.133809311129	0.687521708414
1	7766	770.133809311129	0.676098404696
1	7783	772.35641169279	0.133169170316
1	7813	776.543449545455	0.210166661616
1	7823	777.419234929422	0.163382454283
1	7835	778.092068098751	0.180290586409
1	7838	778.321674421357	0.366212814218
1	7843	778.551280743963	0.070258561102
1	7863	782.010930589907	0.031585849201
1	7868	782.240536912513	0.114993979524
1	7885	783.432915594431	0.122407147072
1	7892	783.662521917037	0.237022824866
1	7897	783.892128239643	0.358671456069
1	7900	784.121734562249	0.477580547407
1	7905	784.351340884855	0.5721677575
1	7908	784.580947207461	0.291937400317
1	7913	784.810553530067	0.149007378092
1	7928	786.90571670835	0.017117349999
1	7938	788.604966809242	0.161126533185
1	7948	789.692511341272	0.19551482036
1	7960	790.44633759964	0.152009703984
1	7963	790.675943922246	0.233650197837
1	7973	791.951845594187	0.001737217485
1	7978	792.181451916793	0.222937901822
1	7983	792.411058239399	0.214641495128
1	7998	793.576091525494	0.169770530672
1	8005	793.8056978481	0.199186008845
1	8008	794.035304170706	0.260502543914
1	8018	794.735661488421	0.026698486788
1	8025	794.965267811027	0.126916845392
1	8028	795.194874133633	0.290092579744
1	8047	796.683462190572	0.217599190392
1	8052	796.913068513178	0.354772392892
1	8057	797.142674835784	0.548116912176
1	8062	797.37228115839	0.602541263731
1	8067	797.601887480996	0.686442354906
1	8069	797.601887480996	0.318126227598
1	8071	797.831493803602	0.422211377978
1	8081	799.137910992568	0.081023406206
1	8116	803.532457885451	0.001948243226
1	8123	804.043238678262	0.202964858641
1	8132	804.946763315137	0.18090718096
1	8171	808.634597489981	0.034915950314
1	8174	808.864203812587	0.247669527984
1	8181	809.093810135193	0.472428822219
1	8184	809.323416457799	0.372382739317
1	8189	809.553022780405	0.561814867189
1	8192	809.782629103011	0.374130506166
1	8197	810.012235425617	0.183217001
1	8207	810.664813941154	0.019604596334
1	8237	813.922481502071	0.144914438503
1	8244	814.152087824677	0.088263684236
1	8251	814.381694147283	0.28615223376
1	8258	814.611300469889	0.299991190168
1	8261	814.840906792495	0.527292564438
1	8268	815.070513115101	0.681212864401
1	8270	815.070513115101	0.601178719806
1	8272	815.300119437707	0.380775921933
1	8275	815.529725760313	0.507260905888
1	8295	818.008707209567	0.163634848919
1	8312	819.531612955411	0.157901963472
1	8315	819.761219278017	0.27140054509
1	8327	821.690004206442	0.226539006026
1	8332	821.919610529048	0.388972376363
[...]
8	6334	635.377654326523	0
8	6341	636.417690608837	0
8	6344	636.647296931443	0
8	6350	637.917257823547	0
8	6357	638.245555450728	0
8	6360	638.475161773334	0
8	6365	638.848768117742	0
8	6372	639.194442778182	0
8	6375	639.424049100788	0
8	6382	639.709039847551	0
8	6387	639.938646170157	0
8	6390	640.168252492763	0
8	6395	641.187328837998	0
8	6400	641.47188439749	0
8	6407	641.706833606889	0
8	6410	641.936439929495	0
8	6419	642.259443083554	0
8	6422	642.48904940616	0
8	6425	642.718655728766	0
8	6430	643.126797273525	0
8	6435	643.881366042312	0
8	6440	645.686447002932	0
8	6447	646.001216018912	0
8	6450	646.230822341518	0
8	6455	646.694786928618	0
8	6460	647.430850421221	0
8	6469	648.127799162104	0
8	6472	648.35740548471	0
8	6477	648.587011807316	0
8	6482	648.816618129922	0
8	6485	649.046224452528	0
8	6490	649.284926864174	0
8	6495	649.757846648029	0
8	6500	650.566621790166	0
8	6505	651.010061456385	0
8	6512	651.413966832219	0
8	6515	651.643573154825	0
8	6520	652.203334032659	0
8	6525	653.536342825803	0
8	6534	654.31678488053	0
8	6537	654.546391203136	0
8	6542	654.775997525742	0
8	6547	655.005603848348	0
8	6550	655.235210170954	0
8	6557	656.45390909491	0
8	6560	656.683515417516	0
8	6567	657.119308371166	0
8	6570	657.348914693772	0
8	6575	658.015514189129	0
8	6580	658.624305197789	0
8	6585	659.278670722077	0
8	6590	660.299330604573	0
8	6595	661.398614589489	0
8	6600	662.00156851884	0
8	6607	662.305852729426	0
8	6610	662.535459052032	0
8	6617	663.464046955659	0
8	6620	663.693653278265	0
8	6625	664.451430893559	0
8	6632	665.987407481485	0
8	6637	666.217013804091	0
8	6644	666.446620126697	0
8	6649	666.676226449303	0
8	6654	666.905832771909	0
8	6659	667.135439094515	0
8	6662	667.365045417121	0
8	6667	667.594651739727	0
8	6670	667.824258062333	0
8	6675	668.52834611866	0
8	6680	668.991471136562	0
8	6687	669.604755358928	0
8	6690	669.834361681534	0
8	6695	670.068400523368	0
8	6703	670.579181316179	0
8	6706	670.808787638785	0
8	6711	671.114899590418	0
8	6718	671.448781101058	0
8	6725	671.678387423664	0
8	6730	671.90799374627	0
8	6735	672.137600068876	0
8	6738	672.367206391482	0
8	6743	672.596812714088	0
8	6746	672.826419036694	0
8	6753	673.388679810904	0
8	6756	673.61828613351	0
8	6761	673.851411339102	0
8	6766	674.188596662779	0
8	6771	675.52973662567	0
8	6776	676.127205649706	0
8	6781	676.553730130949	0
8	6788	677.623904894034	0
8	6795	677.85351121664	0
8	6798	678.083117539246	0
8	6805	678.312723861852	0
8	6810	678.542330184458	0
8	6813	678.771936507064	0
8	6816	679.00154282967	0
8	6823	679.680524886443	0
8	6828	679.910131209049	0
8	6831	680.139737531655	0
8	6836	681.170635549662	0
8	6841	681.753968486942	0
8	6846	682.424459857553	0
8	6853	682.758660574155	0
8	6856	682.988266896761	0
8	6863	683.87811716314	0
8	6870	684.107723485746	0
8	6873	684.337329808352	0
8	6878	684.566936130958	0
8	6881	684.796542453564	0
8	6888	686.028040199577	0
8	6891	686.257646522183	0
8	6896	686.572079073361	0
8	6901	686.894539926595	0
8	6908	687.530559660139	0
8	6913	687.760165982745	0
8	6916	687.989772305351	0
8	6925	688.276054507423	0
8	6930	688.505660830029	0
8	6933	688.735267152635	0
8	6936	688.964873475241	0
8	6941	689.733815385463	0
8	6946	690.14277107712	0
8	6951	691.223077499957	0
8	6958	691.926600516819	0
8	6961	692.156206839425	0
8	6966	692.735603862157	0
8	6971	694.574703723766	0
8	6976	696.889919986449	0
8	6981	697.258320313676	0
8	6986	697.54612847392	0
8	6991	699.029248272042	0
8	6998	699.350589515816	0
8	7001	699.580195838422	0
8	7008	699.835019907014	0
8	7011	700.06462622962	0
8	7020	700.320591888738	0
8	7023	700.550198211344	0
8	7026	700.77980453395	0
8	7031	701.239352442344	0
8	7036	702.058574345536	0
8	7047	702.329204972403	0
8	7054	702.558811295009	0
8	7060	703.06959208782	0
8	7070	703.299198410426	0
8	7073	703.528804733032	0
8	7076	703.758411055638	0
8	7081	704.178605675334	0
8	7088	705.836018614632	0
8	7091	706.065624937238	0
8	7096	706.880820236754	0
8	7101	708.256385383505	0
8	7108	708.809183197856	0
8	7111	709.038789520462	0
8	7116	709.369399476416	0
8	7121	709.737865311112	0
8	7126	710.908684165383	0
8	7133	711.159372704722	0
8	7136	711.388979027328	0
8	7141	711.752411059406	0
8	7152	712.159231103543	0
8	7155	712.388837426149	0
8	7160	712.618443748755	0
8	7163	712.848050071361	0
8	7168	713.077656393967	0
8	7171	713.307262716573	0
8	7180	713.659665380084	0
8	7183	713.88927170269	0
8	7190	714.118878025296	0
8	7195	714.348484347902	0
8	7198	714.578090670508	0
8	7205	714.807696993114	0
8	7212	715.03730331572	0
8	7215	715.266909638326	0
8	7218	715.496515960932	0
8	7223	715.726122283538	0
8	7226	715.955728606144	0
8	7231	717.04712780806	0
8	7236	717.891111864778	0
8	7241	718.246143655814	0
8	7248	718.477969049378	0
8	7251	718.707575371984	0
8	7256	719.836985374385	0
8	7261	720.214665153606	0
8	7270	720.818479723001	0
8	7273	721.048086045607	0
8	7276	721.277692368213	0
8	7281	721.538197058454	0
8	7286	721.806852878146	0
8	7291	722.379910700113	0
8	7298	723.839389853968	0
8	7301	724.068996176574	0
8	7306	725.122680839535	0
8	7311	726.86640995265	0
8	7318	727.483922513957	0
8	7323	727.713528836563	0
8	7326	727.943135159169	0
8	7331	728.343907380484	0
8	7336	728.940033916504	0
8	7343	729.336564274483	0
8	7346	729.566170597089	0
8	7351	730.552945358377	0
8	7356	731.226140444666	0
8	7363	731.502531098138	0
8	7366	731.732137420744	0
8	7371	732.036262902395	0
8	7378	732.446288948264	0
8	7381	732.67589527087	0
8	7386	733.122242867969	0
8	7391	733.498192005851	0
8	7396	734.06037182646	0
8	7403	734.978234069912	0
8	7406	735.207840392518	0
8	7414	735.718621185329	0
8	7417	735.948227507935	0
8	7424	736.212387355738	0
8	7427	736.441993678344	0
8	7432	736.883881467401	0
8	7437	737.128799053889	0
8	7442	737.587751714828	0
8	7447	738.42966163267	0
8	7452	739.174660566497	0
8	7461	739.881866987378	0
8	7466	740.111473309984	0
8	7469	740.34107963259	0
8	7472	740.570685955196	0
8	7477	741.50453658206	0
8	7482	741.943295207286	0
8	7489	743.29174285649	0
8	7494	743.521349179096	0
8	7497	743.750955501702	0
8	7502	746.200499599424	0
8	7507	746.749580558882	0
8	7512	747.038263372785	0
8	7517	749.146660969978	0
8	7524	749.400512955588	0
8	7527	749.630119278194	0
8	7534	750.088955092799	0
8	7537	750.318561415405	0
8	7542	751.126229129279	0
8	7549	752.087426429081	0
8	7552	752.317032751687	0
8	7559	752.731868614397	0
8	7564	752.961474937003	0
8	7571	753.191081259609	0
8	7576	753.420687582215	0
8	7579	753.650293904821	0
8	7586	753.879900227427	0
8	7595	754.109506550033	0
8	7598	754.339112872639	0
8	7603	754.568719195245	0
8	7607	754.798325517851	0
8	7610	755.027931840457	0
8	7617	756.094336462646	0
8	7620	756.323942785252	0
8	7627	756.899507855348	0
8	7630	757.129114177954	0
8	7635	757.587281196252	0
8	7640	758.383173053805	0
8	7645	758.887408816518	0
8	7650	759.432138355354	0
8	7659	760.126884382448	0
8	7662	760.356490705054	0
8	7665	760.58609702766	0
8	7672	761.107167909817	0
8	7675	761.336774232423	0
8	7680	761.60146136754	0
8	7687	762.156010273751	0
8	7690	762.385616596357	0
8	7695	763.438682155316	0
8	7700	763.933172529423	0
8	7705	765.394323287634	0
8	7710	765.66561581949	0
8	7715	766.259509561823	0
8	7722	766.544270233508	0
8	7725	766.773876556114	0
8	7732	767.72067850388	0
8	7735	767.950284826486	0
8	7740	768.185133038275	0
8	7745	768.619775961915	0
8	7752	769.393422195712	0
8	7761	769.623028518318	0
8	7764	769.852634840924	0
8	7772	770.923755021185	0
8	7777	771.377417376078	0
8	7784	772.35641169279	0
8	7787	772.586018015396	0
8	7792	774.100460772972	0
8	7797	774.85019177374	0
8	7802	775.346443031847	0
8	7807	775.953835588963	0
8	7814	776.543449545455	0
8	7817	776.773055868061	0
8	7824	777.419234929422	0
8	7827	777.648841252028	0
8	7836	778.092068098751	0
8	7839	778.321674421357	0
8	7844	778.551280743963	0
8	7847	778.780887066569	0
8	7852	780.584408953094	0
8	7857	781.76225805794	0
8	7864	782.010930589907	0
8	7869	782.240536912513	0
8	7872	782.470143235119	0
8	7877	782.804517042761	0
8	7886	783.432915594431	0
8	7893	783.662521917037	0
8	7898	783.892128239643	0
8	7901	784.121734562249	0
8	7906	784.351340884855	0
8	7909	784.580947207461	0
8	7914	784.810553530067	0
8	7917	785.040159852673	0
8	7922	785.742851021883	0
8	7929	786.90571670835	0
8	7932	787.135323030956	0
8	7939	788.604966809242	0
8	7942	788.834573131848	0
8	7949	789.692511341272	0
8	7952	789.922117663878	0
8	7961	790.44633759964	0
8	7964	790.675943922246	0
8	7967	790.905550244852	0
8	7974	791.951845594187	0
8	7979	792.181451916793	0
8	7984	792.411058239399	0
8	7987	792.640664562005	0
8	7992	793.185591328961	0
8	7999	793.576091525494	0
8	8006	793.8056978481	0
8	8009	794.035304170706	0
8	8012	794.264910493312	0
8	8019	794.735661488421	0
8	8026	794.965267811027	0
8	8029	795.194874133633	0
8	8032	795.424480456239	0
8	8037	795.870599247589	0
8	8048	796.683462190572	0
8	8053	796.913068513178	0
8	8058	797.142674835784	0
8	8063	797.37228115839	0
8	8068	797.601887480996	0
8	8072	797.831493803602	0
8	8075	798.061100126208	0
8	8082	799.137910992568	0
8	8085	799.367517315174	0
8	8090	799.682502954188	0
8	8095	800.932198415033	0
8	8100	801.694642223895	0
8	8105	802.361301042894	0
8	8110	802.789180715475	0
8	8117	803.532457885451	0
8	8120	803.762064208057	0
8	8126	804.272845000868	0
8	8133	804.946763315137	0
8	8136	805.176369637743	0
8	8141	805.518287325074	0
8	8146	805.999678113343	0
8	8151	806.3964453555	0
8	8156	807.185278268039	0
8	8161	807.771098781681	0
8	8172	808.634597489981	0
8	8175	808.864203812587	0
8	8182	809.093810135193	0
8	8185	809.323416457799	0
8	8190	809.553022780405	0
8	8193	809.782629103011	0
8	8198	810.012235425617	0
8	8201	810.241841748223	0
8	8208	810.664813941154	0
8	8211	810.89442026376	0
8	8216	812.50231686234	0
8	8221	812.759265138263	0
8	8226	812.992769903468	0
8	8231	813.514351427966	0
8	8238	813.922481502071	0
8	8245	814.152087824677	0
8	8252	814.381694147283	0
8	8259	814.611300469889	0
8	8262	814.840906792495	0
8	8269	815.070513115101	0
8	8273	815.300119437707	0
8	8276	815.529725760313	0
8	8279	815.759332082919	0
8	8284	816.082725664706	0
8	8289	816.472156907157	0
8	8296	818.008707209567	0
8	8299	818.238313532173	0
8	8304	819.141578209652	0
8	8313	819.531612955411	0
8	8316	819.761219278017	0
8	8319	819.990825600623	0
8	8328	821.690004206442	0
8	8333	821.919610529048	0
8	8338	822.149216851654	0
8	8341	822.37882317426	0
8	8344	822.608429496866	0
8	8349	823.08116922794	0
8	8356	824.568944323467	0
8	8361	824.798550646073	0
8	8364	825.028156968679	0
8	8371	825.455293568378	0
8	8376	825.684899890984	0
8	8379	825.91450621359	0
8	8386	826.924295752681	0
8	8389	827.153902075287	0
8	8394	828.468406492837	0
8	8399	828.825850585633	0
8	8404	829.563808933393	0
8	8409	830.121988527226	0
8	8414	831.567411113124	0
8	8419	832.102280180051	0
8	8424	832.537242686561	0
8	8429	833.074244599935	0
8	8434	834.081748604747	0
8	8439	835.314104864508	0
8	8444	835.939992295098	0
8	8449	837.327992992597	0
8	8456	837.814835946642	0
8	8459	838.044442269248	0
8	8466	839.505958703027	0
8	8471	839.735565025633	0
8	8474	839.965171348239	0
8	8482	841.762992333578	0
8	8487	841.992598656184	0
8	8492	842.22220497879	0
8	8495	842.451811301396	0
8	8502	842.977844327386	0
8	8505	843.207450649992	0
8	8510	843.562394684499	0
8	8515	844.252405257174	0
8	8520	844.72933590163	0
8	8525	845.715840242447	0
8	8532	847.531164231616	0
8	8537	847.760770554222	0
8	8540	847.990376876828	0
8	8545	848.444300480206	0
8	8550	848.774935102523	0
8	8559	849.307432649206	0
8	8562	849.537038971812	0
8	8567	849.766645294418	0
8	8572	849.996251617024	0
8	8581	850.22585793963	0
8	8588	850.455464262236	0
8	8591	850.685070584842	0
8	8594	850.914676907448	0
8	8598	851.144283230054	0
8	8603	851.54215581144	0
8	8608	852.309447923485	0
8	8613	852.921655556326	0
8	8622	853.557070067008	0
8	8629	853.786676389614	0
8	8632	854.01628271222	0
8	8639	854.245889034826	0
8	8642	854.475495357432	0
8	8647	854.705101680038	0
8	8650	854.934708002644	0
8	8653	855.16431432525	0
8	8660	855.909694278049	0
8	8665	856.139300600655	0
8	8670	856.368906923261	0
8	8675	856.598513245867	0
8	8680	856.828119568473	0
8	8683	857.057725891079	0
8	8688	857.610995495425	0
8	8695	857.856050227357	0
8	8698	858.085656549963	0
8	8707	860.449843509339	0
8	8710	860.679449831945	0
8	8713	860.909056154551	0
8	8718	861.522382218003	0
8	8723	862.296767170212	0
8	8730	862.966207056341	0
8	8733	863.195813378947	0
8	8740	863.717906189858	0
8	8743	863.947512512464	0
8	8748	864.514777378909	0
8	8753	865.015300168951	0
8	8760	865.717890464221	0
8	8763	865.947496786827	0
8	8770	866.661859713894	0
8	8779	866.8914660365	0
8	8782	867.121072359106	0
8	8785	867.350678681712	0
8	8788	867.580285004318	0
8	8795	868.016556408647	0
8	8798	868.246162731253	0
8	8803	869.013327962609	0
8	8808	869.881944165648	0
8	8813	870.540930447356	0
8	8820	870.967067302701	0
8	8825	871.196673625307	0
8	8830	871.426279947913	0
8	8840	871.937060740724	0
8	8845	872.16666706333	0
8	8848	872.396273385936	0
8	8853	872.625879708542	0
8	8858	872.855486031148	0
8	8863	873.085092353754	0
8	8866	873.31469867636	0
8	8869	873.544304998966	0
8	8876	874.213974889578	0
8	8879	874.443581212184	0
8	8884	876.334419930189	0
8	8889	877.239127697416	0
8	8894	878.243028509527	0
8	8899	879.309245591173	0
8	8908	879.682142792969	0
8	8911	879.911749115575	0
8	8914	880.141355438181	0
8	8919	880.388140604568	0
8	8924	880.816566067451	0
8	8929	881.119239642469	0
8	8938	881.808395266703	0
8	8941	882.038001589309	0
8	8946	882.267607911915	0
8	8949	882.497214234521	0
8	8956	882.74071791318	0
8	8961	882.970324235786	0
8	8964	883.199930558392	0
8	8971	883.647958909707	0
8	8974	883.877565232313	0
8	8979	884.167134096827	0
8	8984	884.416311899844	0
8	8989	885.081423118351	0
8	8994	886.789738895213	0
8	8999	887.913436991678	0
8	9004	888.38021487538	0
8	9011	888.639130010421	0
8	9014	888.868736333027	0
8	9019	889.935257288725	0
8	9024	890.59875348307	0
8	9033	891.227751529284	0
8	9038	891.45735785189	0
8	9041	891.686964174496	0
8	9046	891.916570497102	0
8	9051	892.146176819708	0
8	9056	892.375783142314	0
8	9061	892.60538946492	0
8	9064	892.834995787526	0
8	9069	893.150130629743	0
8	9074	893.92774156227	0
8	9079	894.229443225691	0
8	9086	894.596530640865	0
8	9089	894.826136963471	0
8	9094	895.267211963685	0
8	9105	895.578162667938	0
8	9110	895.807768990544	0
8	9113	896.03737531315	0
8	9116	896.266981635756	0
8	9119	896.496587958362	0
8	9124	897.480400899281	0
8	9133	898.881376010312	0
8	9138	899.110982332918	0
8	9141	899.340588655524	0
8	9146	899.57019497813	0
8	9151	899.799801300736	0
8	9154	900.029407623342	0
8	9159	900.470291143442	0
8	9164	900.906642570232	0
8	9169	902.004944557035	0
8	9174	902.781041347289	0
8	9179	903.067009761063	0
8	9185	903.748434306813	0
8	9190	904.401416332937	0
8	9195	905.11626885068	0
8	9200	905.63410383025	0
8	9205	906.257122927119	0
8	9210	906.73913784846	0
8	9215	907.940520594045	0
8	9222	908.56636005188	0
8	9225	908.795966374486	0
8	9230	910.125519216834	0
8	9235	910.873900897732	0
8	9244	911.112694247525	0
8	9247	911.342300570131	0
8	9250	911.571906892737	0
8	9259	913.543273346727	0
8	9266	913.772879669333	0
8	9271	914.002485991939	0
8	9276	914.232092314545	0
8	9283	914.461698637151	0
8	9287	914.691304959757	0
8	9292	914.920911282363	0
8	9295	915.150517604969	0
8	9298	915.380123927575	0
8	9303	915.68702116439	0
8	9308	916.311903898338	0
8	9313	917.169871760529	0
8	9318	917.40089666313	0
8	9323	917.65577544281	0
8	9330	918.300254353966	0
8	9333	918.529860676572	0
8	9338	919.49401472123	0
8	9343	920.139988979771	0
8	9354	920.499148407288	0
8	9359	920.728754729894	0
8	9362	920.9583610525	0
8	9365	921.187967375106	0
8	9368	921.417573697712	0
8	9375	922.446235963577	0
8	9378	922.675842286183	0
8	9383	923.087424280276	0
8	9388	923.477041687349	0
8	9395	923.97829033075	0
8	9398	924.207896653356	0
8	9403	924.518368076507	0
8	9408	925.321443477162	0
8	9415	926.382226611954	0
8	9418	926.61183293456	0
8	9423	926.975249631101	0
8	9428	927.670982087376	0
8	9433	928.328887581955	0
8	9438	928.852375819394	0
8	9447	929.837321024026	0
8	9452	930.066927346632	0
8	9455	930.296533669238	0
8	9460	930.526139991844	0
8	9463	930.75574631445	0
8	9468	930.999794280832	0
8	9475	931.632799186288	0
8	9478	931.862405508894	0
8	9483	932.627521277475	0
8	9488	932.935528567629	0
8	9493	933.32131644444	0
8	9498	933.862600653743	0
8	9505	934.233815895989	0
8	9508	934.463422218595	0
8	9513	934.797435066517	0
8	9518	935.717925638294	0
8	9527	936.813284547416	0
8	9530	937.042890870022	0
8	9535	937.272497192628	0
8	9543	937.783277985439	0
8	9548	938.012884308045	0
8	9551	938.242490630651	0
8	9556	938.472096953257	0
8	9559	938.701703275863	0
8	9564	939.069148683211	0
8	9569	939.394919480881	0
8	9574	940.099875824854	0
8	9579	940.384728993759	0
8	9586	941.429073515764	0
8	9589	941.65867983837	0
8	9596	941.918720187749	0
8	9599	942.148326510355	0
8	9608	943.203413030754	0
8	9613	943.43301935336	0
8	9616	943.662625675966	0
8	9619	943.892231998572	0
8	9626	944.263717693816	0
8	9629	944.493324016422	0
8	9634	944.773302064736	0
8	9639	945.767786611951	0
8	9648	946.08429148208	0
8	9657	946.313897804686	0
8	9660	946.543504127292	0
8	9663	946.773110449898	0
8	9666	947.002716772504	0
8	9672	948.048728987078	0
8	9679	948.344829728357	0
8	9682	948.574436050963	0
8	9689	948.984063915865	0
8	9696	949.213670238471	0
8	9701	949.443276561077	0
8	9704	949.672882883683	0
8	9709	949.902489206289	0
8	9714	950.132095528895	0
8	9717	950.361701851501	0
8	9724	950.680258282552	0
8	9727	950.909864605158	0
8	9732	951.539038333922	0
8	9737	952.115779307671	0
8	9742	954.141202081162	0
8	9747	954.644920989604	0
8	9754	954.934233285575	0
8	9757	955.163839608181	0
8	9762	955.607686263695	0
8	9767	955.999555994805	0
8	9772	956.296723961841	0
8	9777	957.327544559962	0
8	9782	958.376654415472	0
8	9789	958.893342139422	0
8	9792	959.122948462028	0
8	9799	959.785081645666	0
8	9804	960.014687968272	0
8	9807	960.244294290878	0
8	9812	961.219099563106	0
8	9817	961.901624042585	0
8	9824	962.49284768864	0
8	9827	962.722454011246	0
8	9832	963.842876131854	0
8	9839	964.289470970136	0
8	9844	964.519077292742	0
8	9847	964.748683615348	0
8	9854	965.103042036639	0
8	9857	965.332648359245	0
8	9862	965.803907108545	0
8	9867	966.034742789884	0
8	9874	967.012726660751	0
8	9877	967.242332983357	0
8	9884	968.003891623802	0
8	9887	968.233497946408	0
8	9893	968.744278739219	0
8	9900	969.35146177002	0
8	9903	969.581068092626	0
8	9908	970.043926693144	0
8	9915	970.566561451186	0
8	9918	970.796167773792	0
8	9923	971.123156920621	0
8	9928	972.069699780202	0
8	9933	973.342167930135	0
8	9940	973.601508730154	0
8	9945	973.83111505276	0
8	9948	974.060721375366	0
8	9953	974.334631969408	0
8	9960	974.761611531034	0
8	9963	974.99121785364	0
8	9968	975.224268613821	0
8	9975	975.673996932971	0
8	9978	975.903603255577	0
8	9983	976.73269540526	0
8	9988	977.242945193683	0
8	9993	977.573023364092	0
8	9998	978.474086435752	0
8	10005	980.079580191411	0
8	10012	980.309186514017	0
8	10015	980.538792836623	0
8	10024	980.768399159229	0
8	10027	980.998005481835	0
8	10030	981.227611804441	0
8	10033	981.457218127047	0
8	10042	982.063824054433	0
8	10045	982.293430377039	0
8	10048	982.523036699645	0
8	10055	982.892771866493	0
8	10058	983.122378189099	0
8	10065	984.050348884071	0
8	10068	984.279955206677	0
8	10077	984.703037882862	0
8	10082	984.932644205468	0
8	10085	985.162250528074	0
8	10092	985.39185685068	0
8	10101	985.621463173286	0
8	10104	985.851069495892	0
8	10107	986.080675818498	0
8	10113	986.310282141104	0
8	10118	986.53988846371	0
8	10121	986.769494786316	0
8	10126	987.222104326491	0
8	10131	987.64040441748	0
8	10136	988.791515793561	0
8	10141	989.434796611636	0
8	10146	989.898535492328	0
8	10151	990.345186915037	0
8	10156	993.173401953713	0
8	10161	994.103062591883	0
8	10168	994.494413613507	0
8	10171	994.724019936113	0
8	10178	995.090348677681	0
8	10181	995.319955000287	0
8	10186	996.793641018414	0
8	10193	997.737742698623	0
8	10196	997.967349021229	0
8	10203	998.397905167551	0
8	10208	998.627511490157	0
8	10213	998.857117812763	0
8	10216	999.086724135369	0
8	10225	999.718343930117	0
8	10232	999.947950252723	0

