version 2
run General-160-20240201-11:04:21-40057
attr configname General
attr datetime 20240201-11:04:21
attr experiment General
attr inifile main.ini
attr iterationvars "$0=1.4, $1=1.7, $2=70"
attr iterationvarsf 1.4,1.7,70-
attr measurement "$0=1.4, $1=1.7, $2=70"
attr network Rete
attr processid 40057
attr repetition 0
attr replication #0
attr resultdir results
attr runnumber 160
attr seedset 160
param Rete.lambda 1.4
param Rete.a 0.3s
param Rete.b 1.7s
param Rete.c 0.1s
param Rete.d 0.3s
param Rete.mu 3.0
param Rete.source2.interArrivalTime exponential(1s/lambda)
param Rete.source2.jobServiceTime exponential(1s/mu)
param Rete.source2.deadline uniform(a,b)
param Rete.server2.j 70
param Rete.server2.V uniform(c,d)

vector 0 Rete.passiveQueue queueLength:vector ETV
attr interpolationmode sample-hold
attr title "queue length, vector"
vector 1 Rete.sink lifeTime:vector ETV
attr interpolationmode none
attr title "lifetime of arrived jobs, vector"
attr unit s
vector 2 Rete.sink totalQueueingTime:vector ETV
attr interpolationmode none
attr title "the total time spent in queues by arrived jobs, vector"
attr unit s
vector 3 Rete.sink queuesVisited:vector ETV
attr interpolationmode none
attr title "the total number of queues visited by arrived jobs, vector"
vector 4 Rete.sink totalServiceTime:vector ETV
attr interpolationmode none
attr title "the total time spent  by arrived jobs, vector"
attr unit s
vector 5 Rete.sink totalDelayTime:vector ETV
attr interpolationmode none
attr title "the total time spent in delay nodes by arrived jobs, vector"
attr unit s
vector 6 Rete.sink delaysVisited:vector ETV
attr interpolationmode none
attr title "the total number of delays visited by arrived jobs, vector"
vector 7 Rete.sink generation:vector ETV
attr interpolationmode none
attr title "the generation of the arrived jobs, vector"
vector 8 Rete.passiveQueue queueingTime:vector ETV
attr interpolationmode none
attr title "queueing time at dequeue, vector"
attr unit s
0	0	0	0
0	30	3.813827255488	1
0	31	3.941702253612	0
0	40	4.781637366454	1
0	41	4.800810232376	0
0	45	4.921164733333	1
0	46	4.93105227279	0
0	90	12.170840293156	1
0	91	12.276301390298	0
0	115	16.824915941088	1
0	116	16.9146252342	0
0	125	18.177298381388	1
0	126	18.250580374213	0
0	130	18.263304353195	1
0	131	18.380822414627	0
0	170	24.103663502922	1
0	171	24.192607848472	0
0	200	30.185866261176	1
0	201	30.268440308823	0
0	260	43.446301668386	1
0	261	43.458111096548	0
0	290	45.710671649583	1
0	291	45.809032288294	0
0	320	49.203981507467	1
0	321	49.249075719543	0
0	356	55.414778343647	1
0	357	55.490477619509	0
0	411	65.645174302086	1
0	412	65.738185872854	0
0	456	70.153584685926	1
0	457	70.234935457759	0
0	466	70.487073804376	1
0	467	70.550149978014	0
0	476	71.230362451172	1
0	477	71.295875978788	0
0	511	76.012427550138	1
0	512	76.069391438893	0
0	561	82.969064134204	1
0	562	83.071179760252	0
0	601	90.132626284189	1
0	602	90.154079039778	0
0	616	91.666140669249	1
0	617	91.666296484003	0
0	621	91.689657272694	1
0	622	91.796538524417	0
0	626	91.798964499352	1
0	627	91.926780564831	0
0	631	91.999267717297	1
0	632	92.057022605245	0
0	636	92.183499822836	1
0	637	92.187264645659	0
0	646	93.431283263276	1
0	647	93.442033579014	0
0	696	101.723021498337	1
0	697	101.818214738769	0
0	703	102.006500405221	1
0	704	102.208494483368	0
0	712	102.350115071802	1
0	714	102.451193273419	2
0	715	102.478935096127	1
0	719	102.486622024997	2
0	720	102.609177136541	1
0	723	102.739419176955	0
0	727	102.850276431261	1
0	728	102.869661217369	0
0	772	110.618479875217	1
0	773	110.693775788596	0
0	842	122.595558580619	1
0	843	122.610411572687	0
0	852	122.836102370261	1
0	853	122.887977784227	0
0	917	138.431166469259	1
0	918	138.500788183399	0
0	927	139.229971795263	1
0	928	139.324396795692	0
0	932	139.382817977176	1
0	933	139.454638836106	0
0	952	143.377712065544	1
0	953	143.47388542627	0
0	972	147.761656236961	1
0	973	147.766817138911	0
0	982	148.046777647046	1
0	983	148.107597265763	0
0	1012	154.065522449747	1
0	1013	154.129412215367	0
0	1042	159.07978149711	1
0	1043	159.104826765435	0
0	1068	161.215530934308	1
0	1069	161.256404425785	0
0	1073	161.380531687163	1
0	1074	161.386646466199	0
0	1078	161.508233697331	1
0	1079	161.516888506613	0
0	1113	164.061962594784	1
0	1114	164.142543617515	0
0	1138	166.346841734885	1
0	1139	166.475702036225	0
0	1168	169.855212703983	1
0	1169	169.878890214571	0
0	1183	171.836157911807	1
0	1184	171.875772272672	0
0	1243	181.314657607436	1
0	1244	181.361855700455	0
0	1268	185.233027036766	1
0	1269	185.321476211076	0
0	1283	187.563166108819	1
0	1284	187.667383213569	0
0	1288	187.707635602469	1
0	1289	187.797625253983	0
0	1298	188.421535931899	1
0	1299	188.456878380604	0
0	1338	191.97698144637	1
0	1339	192.063104431052	0
0	1368	195.449125000171	1
0	1369	195.523712415779	0
0	1393	199.216341381679	1
0	1394	199.28612436555	0
0	1439	205.513998544666	1
0	1440	205.550852574852	0
0	1459	208.822516673725	1
0	1460	208.842046464102	0
0	1494	216.175565285642	1
0	1496	216.204648333776	2
0	1497	216.287267593733	1
0	1500	216.417509634147	0
0	1519	219.640043236273	1
0	1520	219.760245031024	0
0	1539	224.389698233823	1
0	1540	224.398914014477	0
0	1564	226.814713876962	1
0	1565	226.892857765538	0
0	1579	228.573367186628	1
0	1580	228.59517169026	0
0	1584	228.637430965092	1
0	1586	228.644359637988	2
0	1588	228.717426649776	3
0	1589	228.725413730674	2
0	1593	228.728996872083	3
0	1594	228.855655771088	2
0	1597	228.985897811502	1
0	1600	229.116139851916	0
0	1644	238.097860208116	1
0	1645	238.139148887391	0
0	1689	243.817336510686	1
0	1690	243.86998260117	0
0	1694	243.889115260862	1
0	1695	244.000224641584	0
0	1739	250.693685383771	1
0	1740	250.728792903216	0
0	1744	250.741803458779	1
0	1745	250.85903494363	0
0	1765	252.952059992225	1
0	1766	253.048883962824	0
0	1790	255.103629551981	1
0	1791	255.110066240545	0
0	1840	261.371973175724	1
0	1841	261.494211162339	0
0	1865	264.05082404883	1
0	1866	264.169829303111	0
0	1900	268.045703015736	1
0	1901	268.138707955106	0
0	1955	275.309958655446	1
0	1956	275.427349067937	0
0	1970	275.899302857275	1
0	1971	275.930123185732	0
0	2010	286.831786774609	1
0	2011	286.879220905807	0
0	2020	287.735083954102	1
0	2021	287.761692527457	0
0	2030	288.39307696744	1
0	2031	288.431026057837	0
0	2040	288.779675265357	1
0	2041	288.783825986644	0
0	2065	293.173881777966	1
0	2066	293.197937896767	0
0	2105	297.166090611128	1
0	2108	297.542762420437	0
0	2116	298.05814854887	1
0	2117	298.095761552307	0
0	2131	299.722657184478	1
0	2132	299.822796108398	0
0	2146	300.621900282854	1
0	2147	300.643806278194	0
0	2196	310.71471630447	1
0	2197	310.825406448938	0
0	2211	311.789712647812	1
0	2212	311.824372112034	0
0	2306	329.742590749262	1
0	2307	329.794735641973	0
0	2391	344.700534978506	1
0	2392	344.777807989074	0
0	2487	359.237372013889	1
0	2489	359.255961302862	2
0	2490	359.262777232886	1
0	2493	359.3930192733	0
0	2542	368.808578318479	1
0	2543	368.866434705151	0
0	2577	372.741613197378	1
0	2578	372.830839499931	0
0	2582	372.864214018828	1
0	2583	372.961081540345	0
0	2592	374.395967019488	1
0	2593	374.412760927603	0
0	2622	377.251356119126	1
0	2623	377.348004603077	0
0	2687	388.103821025615	1
0	2688	388.20050757517	0
0	2732	393.889577767807	1
0	2733	393.950125976852	0
0	2737	393.995458393336	1
0	2739	394.054333270824	2
0	2740	394.080368017266	1
0	2743	394.21061005768	0
0	2777	396.931204904897	1
0	2778	397.013598073528	0
0	2797	399.20301381554	1
0	2798	399.213382437719	0
0	2809	400.378752924549	1
0	2810	400.468413715541	0
0	2813	400.512965620966	1
0	2814	400.598655755955	0
0	2843	404.025071751119	1
0	2844	404.031280392805	0
0	2848	404.089742156886	1
0	2849	404.161522433219	0
0	2858	404.587185666749	1
0	2859	404.676352933371	0
0	2863	404.731252619508	1
0	2864	404.806594973785	0
0	2873	405.01932401079	1
0	2874	405.11831389901	0
0	2973	420.36103519823	1
0	2974	420.366762473648	0
0	2978	420.44230951148	1
0	2979	420.497004514062	0
0	2988	420.895771152108	1
0	2989	420.981657750736	0
0	2998	421.327681218089	1
0	2999	421.353258118905	0
0	3038	429.430752773379	1
0	3039	429.435242743923	0
0	3108	443.272722014866	1
0	3109	443.315018472779	0
0	3123	443.924233774488	1
0	3125	443.995235261187	2
0	3126	444.036777002411	1
0	3129	444.167019042825	0
0	3133	444.26447252675	1
0	3134	444.297261083239	0
0	3143	444.51543116015	1
0	3144	444.592009087519	0
0	3184	452.475247888207	1
0	3186	452.503229630432	2
0	3187	452.51842837147	1
0	3190	452.648670411884	0
0	3219	454.960713028706	1
0	3220	455.061530972459	0
0	3224	455.180526767056	1
0	3225	455.191773012873	0
0	3284	462.834747785054	1
0	3285	462.88166874124	0
0	3319	466.643354965676	1
0	3320	466.771383524902	0
0	3329	467.181532568075	1
0	3331	467.244140832588	2
0	3332	467.246470861562	1
0	3335	467.376712901976	0
0	3354	470.083983650467	1
0	3355	470.1088114063	0
0	3359	470.117376538243	1
0	3360	470.239053446714	0
0	3449	486.486892868496	1
0	3450	486.505044690228	0
0	3459	488.632348438379	1
0	3460	488.656512828525	0
0	3469	489.186445035171	1
0	3470	489.189429013737	0
0	3494	491.145166347022	1
0	3495	491.177787994765	0
0	3499	491.208974917169	1
0	3500	491.308030035179	0
0	3520	495.933420699765	1
0	3521	496.060695519005	0
0	3540	498.994248235995	1
0	3541	499.102647758676	0
0	3560	502.035066990239	1
0	3561	502.103817139314	0
0	3565	502.184146659842	1
0	3566	502.234059179728	0
0	3615	512.209556082691	1
0	3616	512.311313848738	0
0	3650	516.119299715082	1
0	3651	516.19956078095	0
0	3705	523.880555239612	1
0	3706	523.936182086913	0
0	3765	534.457991083619	1
0	3766	534.496423969648	0
0	3775	534.71287308432	1
0	3776	534.810807156721	0
0	3820	539.254979876627	1
0	3821	539.318803912658	0
0	3825	539.394893147872	1
0	3826	539.449045953072	0
0	3862	544.101767484575	1
0	3863	544.17440448341	0
0	3891	548.171894551736	1
0	3892	548.290254067957	0
0	3981	561.868368507724	1
0	3982	561.923643309758	0
0	3991	563.404504903109	1
0	3992	563.425258466498	0
0	3996	563.547209254316	1
0	3997	563.555500506912	0
0	4011	565.678642505601	1
0	4012	565.693499826434	0
0	4036	568.961617794454	1
0	4037	569.083590006438	0
0	4126	581.832817030185	1
0	4127	581.912213760831	0
0	4161	584.702434828656	1
0	4162	584.789549892852	0
0	4232	597.670396099393	1
0	4233	597.789356977149	0
0	4257	602.367144523503	1
0	4258	602.493112685728	0
0	4287	605.283517390014	1
0	4289	605.293727576231	2
0	4291	605.382142786417	3
0	4292	605.407581358115	2
0	4295	605.537823398529	1
0	4298	605.668065438943	0
0	4302	605.734059328572	1
0	4303	605.798307479357	0
0	4322	607.768508849871	1
0	4323	607.85442078445	0
0	4347	609.284629699429	1
0	4348	609.301192497841	0
0	4352	609.409992958548	1
0	4353	609.431434538255	0
0	4382	613.600903114869	1
0	4383	613.602608936939	0
0	4412	616.337043647965	1
0	4413	616.352907263896	0
0	4522	629.602246782746	1
0	4523	629.714521238598	0
0	4578	638.017375451448	1
0	4579	638.043926049847	0
0	4598	640.637624689975	1
0	4599	640.669150530846	0
0	4603	640.733273374851	1
0	4604	640.79939257126	0
0	4633	643.078930063744	1
0	4634	643.18395661984	0
0	4663	646.617242604097	1
0	4664	646.643669099364	0
0	4708	654.252884162978	1
0	4709	654.327662094087	0
0	4728	656.983773285629	1
0	4730	656.99805721085	2
0	4731	657.02586992659	1
0	4734	657.156111967004	0
0	4738	657.192937606323	1
0	4739	657.286354007418	0
0	4753	658.104924633676	1
0	4754	658.234689366829	0
0	4783	661.469252645003	1
0	4784	661.502385947796	0
0	4793	662.15600479906	1
0	4794	662.264721248018	0
0	4803	664.161372309734	1
0	4805	664.163429225458	2
0	4806	664.287727078657	1
0	4809	664.417969119071	0
0	4818	664.871285821541	1
0	4819	664.936357640715	0
0	4838	665.970265456713	1
0	4839	665.981620514846	0
0	4853	669.350368770376	1
0	4854	669.398540292277	0
0	4863	669.982703135769	1
0	4864	669.997634808521	0
0	4873	671.156335547582	1
0	4874	671.200223126086	0
0	4878	671.255665385745	1
0	4879	671.3304651665	0
0	4984	696.492533013394	1
0	4985	696.545618549641	0
0	4999	700.243043798867	1
0	5000	700.299014086268	0
0	5024	704.335675160705	1
0	5025	704.443445600788	0
0	5049	706.52130032952	1
0	5050	706.568446686181	0
0	5104	714.838414504763	1
0	5105	714.963946955136	0
0	5154	725.135315439735	1
0	5155	725.192799787764	0
0	5164	725.680820056251	1
0	5165	725.683108658281	0
0	5179	727.748144561607	1
0	5180	727.781635297946	0
0	5189	729.317249859756	1
0	5190	729.364092136021	0
0	5275	741.031500927263	1
0	5276	741.089941623505	0
0	5285	741.954015370162	1
0	5286	742.022683308046	0
0	5430	756.743955742938	1
0	5431	756.81460449271	0
0	5480	767.753010992307	1
0	5481	767.875764060768	0
0	5490	768.05355779729	1
0	5491	768.152049744941	0
0	5545	782.137817043817	1
0	5546	782.225040759566	0
0	5590	789.103431775872	1
0	5591	789.20604044083	0
0	5696	808.028014323179	1
0	5697	808.037825501683	0
0	5706	809.222752533128	1
0	5707	809.303995803049	0
0	5826	834.263811801601	1
0	5827	834.312952424382	0
0	5836	834.54837295742	1
0	5837	834.576901151051	0
0	5891	842.570634507116	1
0	5892	842.67683371167	0
0	5906	844.110515585132	1
0	5907	844.20647846206	0
0	5936	846.672067291724	1
0	5937	846.683850598732	0
0	5951	848.472025835857	1
0	5952	848.515556057669	0
0	6022	860.602507284541	1
0	6023	860.729356357808	0
0	6077	868.677085493909	1
0	6078	868.79780653467	0
0	6137	879.715029890404	1
0	6138	879.757170521877	0
0	6157	883.337871290034	1
0	6158	883.373256804589	0
0	6162	883.42476579453	1
0	6163	883.503498845003	0
0	6182	884.315244058823	1
0	6183	884.351247384595	0
0	6187	884.456982567636	1
0	6188	884.481489425009	0
0	6207	886.300307445325	1
0	6208	886.406774168506	0
0	6212	886.414090735385	1
0	6213	886.53701620892	0
0	6252	898.018211027984	1
0	6253	898.139693061749	0
0	6292	902.31197304309	1
0	6293	902.334209968451	0
0	6319	905.048932513794	1
0	6320	905.124202870862	0
0	6353	908.161455897326	1
0	6354	908.27990190516	0
0	6383	911.653471752812	1
0	6384	911.756826263146	0
0	6403	913.510440601756	1
0	6404	913.620816637878	0
0	6443	921.238639611139	1
0	6444	921.345350049012	0
0	6468	924.766702827694	1
0	6469	924.794981362738	0
0	6478	925.173724951949	1
0	6479	925.210891390342	0
0	6493	926.90908087748	1
0	6494	926.93846614112	0
0	6513	929.60104111607	1
0	6514	929.632397230574	0
0	6548	932.57302483197	1
0	6549	932.677386653631	0
0	6633	942.825751189774	1
0	6634	942.937737339155	0
0	6653	947.312265040408	1
0	6655	947.334490520544	2
0	6656	947.348054916374	1
0	6659	947.478296956788	0
0	6668	948.026442977653	1
0	6671	948.2940678702	0
0	6699	951.239922892968	1
0	6700	951.277378651809	0
0	6764	960.834151999702	1
0	6765	960.877627703009	0
0	6799	965.910251409067	1
0	6801	965.955948262481	2
0	6802	966.007105498326	1
0	6805	966.13734753874	0
0	6824	967.274117745142	1
0	6825	967.394771838987	0
0	6839	968.557723757939	1
0	6840	968.623217466163	0
0	6844	968.703072265205	1
0	6845	968.753459506577	0
0	6944	984.612543335508	1
0	6945	984.651282634995	0
0	6979	988.008864979057	1
0	6980	988.033244180409	0
0	6984	988.046306529391	1
0	6985	988.163486220823	0
0	7009	991.92184284145	1
0	7010	992.023248800478	0
1	5	1.41032523444	0.130242040414
1	10	1.751587915054	0.130242040414
1	15	2.597304782704	0.130242040414
1	20	2.858803444583	0.130242040414
1	25	3.344479997807	0.130242040414
1	32	3.941702253612	0.130242040414
1	35	4.071944294026	0.258117038538
1	42	4.800810232376	0.130242040414
1	47	4.93105227279	0.149414906336
1	50	5.061294313204	0.140129579871
1	55	5.24906926307	0.130242040414
1	60	5.604352431351	0.130242040414
1	65	8.638324869955	0.130242040414
1	70	8.895931549706	0.130242040414
1	75	9.1583211187	0.130242040414
1	80	10.104016903962	0.130242040414
1	85	10.336637083394	0.130242040414
1	92	12.276301390298	0.130242040414
1	95	12.406543430712	0.235703137556
1	100	13.685913836231	0.130242040414
1	105	15.519522435935	0.130242040414
1	110	15.888229424792	0.130242040414
1	117	16.9146252342	0.130242040414
1	120	17.044867274614	0.219951333526
1	127	18.250580374213	0.130242040414
1	132	18.380822414627	0.203524033239
1	135	18.511064455041	0.247760101846
1	140	20.189364312222	0.130242040414
1	145	20.889615880972	0.130242040414
1	150	21.440566518122	0.130242040414
1	155	21.761161652474	0.130242040414
1	160	22.210422777482	0.130242040414
1	165	23.991281772302	0.130242040414
1	172	24.192607848472	0.130242040414
1	175	24.322849888886	0.219186385964
1	180	24.692676880918	0.130242040414
1	185	25.449068789389	0.130242040414
1	190	26.249567745169	0.130242040414
1	195	27.54401373438	0.130242040414
1	202	30.268440308823	0.130242040414
1	205	30.398682349237	0.212816088061
1	210	32.838416161157	0.130242040414
1	215	36.469969869001	0.130242040414
1	220	37.000241366656	0.130242040414
1	225	37.166893247773	0.130242040414
1	230	38.734128701906	0.130242040414
1	235	39.566528502944	0.130242040414
1	240	40.800649810899	0.130242040414
1	245	41.287175580724	0.130242040414
1	250	42.421611016252	0.130242040414
1	255	42.861180128501	0.130242040414
1	262	43.458111096548	0.130242040414
1	265	43.588353136962	0.142051468576
1	270	44.282661395359	0.130242040414
1	275	44.532841651253	0.130242040414
1	280	44.894975557331	0.130242040414
1	285	45.202620256816	0.130242040414
1	292	45.809032288294	0.130242040414
1	295	45.939274328708	0.228602679125
1	300	46.585047631317	0.130242040414
1	305	48.374510504952	0.130242040414
1	310	48.510801757908	0.130242040414
1	315	48.815414133859	0.130242040414
1	322	49.249075719543	0.130242040414
1	325	49.379317759957	0.17533625249
1	330	50.75106573067	0.130242040414
1	335	50.958963135683	0.130242040414
1	340	51.389496997398	0.130242040414
1	345	53.176460941004	0.130242040414
1	350	54.507597266331	0.130242040414
1	358	55.490477619509	0.130242040414
1	361	55.620719659923	0.205941316276
1	366	56.969953504569	0.130242040414
1	371	60.361071855573	0.130242040414
1	376	61.647427659548	0.130242040414
1	381	61.788891493608	0.130242040414
1	386	62.383385751839	0.130242040414
1	391	63.094458619324	0.130242040414
1	396	63.886763377724	0.130242040414
1	401	64.027518778805	0.130242040414
1	406	65.507162871858	0.130242040414
1	413	65.738185872854	0.130242040414
1	416	65.868427913268	0.223253611182
1	421	66.212739340689	0.130242040414
1	426	66.61778976829	0.130242040414
1	431	67.607397085767	0.130242040414
1	436	68.166100535549	0.130242040414
1	441	69.098969465816	0.130242040414
1	446	69.322723621592	0.130242040414
1	451	69.947691800143	0.130242040414
1	458	70.234935457759	0.130242040414
1	461	70.365177498173	0.211592812247
1	468	70.550149978014	0.130242040414
1	471	70.680392018428	0.193318214052
1	478	71.295875978788	0.130242040414
1	481	71.426118019202	0.19575556803
1	486	73.10185677816	0.130242040414
1	491	74.104821310212	0.130242040414
1	496	75.047165723213	0.130242040414
1	501	75.341687328289	0.130242040414
1	506	75.816276476644	0.130242040414
1	513	76.069391438893	0.130242040414
1	516	76.199633479307	0.187205929169
1	521	76.399443759549	0.130242040414
1	526	77.196258680032	0.130242040414
1	531	80.183604613101	0.130242040414
1	536	80.50648926812	0.130242040414
1	541	81.043331292177	0.130242040414
1	546	81.407507053189	0.130242040414
1	551	81.828125967364	0.130242040414
1	556	82.024352028281	0.130242040414
1	563	83.071179760252	0.130242040414
1	566	83.201421800666	0.232357666462
1	571	83.529503933982	0.130242040414
1	576	84.646841560605	0.130242040414
1	581	86.443174169301	0.130242040414
1	586	86.897800604669	0.130242040414
1	591	89.269276927198	0.130242040414
1	596	89.560384310397	0.130242040414
1	603	90.154079039778	0.130242040414
1	606	90.284321080192	0.151694796003
1	611	91.0024197589	0.130242040414
1	618	91.666296484003	0.130242040414
1	623	91.796538524417	0.130397855168
1	628	91.926780564831	0.237123292137
1	633	92.057022605245	0.258058105893
1	638	92.187264645659	0.187996928362
1	641	92.317506686073	0.134006863237
1	648	93.442033579014	0.130242040414
1	651	93.572275619428	0.140992356152
1	656	93.884011023671	0.130242040414
1	661	94.622524165186	0.130242040414
1	666	95.970861343372	0.130242040414
1	671	97.111652192492	0.130242040414
1	676	97.425102117428	0.130242040414
1	681	99.310185246335	0.130242040414
1	686	99.763795489761	0.130242040414
1	691	101.544706724208	0.130242040414
1	698	101.818214738769	0.130242040414
1	701	101.948456779183	0.225435280846
1	707	102.338736523782	0.332236118561
1	716	102.478935096127	0.130242040414
1	721	102.609177136541	0.259062064739
1	724	102.739419176955	0.288225903536
1	729	102.869661217369	0.383039192372
1	732	102.999903257783	0.149626826522
1	737	103.955846448056	0.130242040414
1	742	104.60739675694	0.130242040414
1	747	104.740055487049	0.130242040414
1	752	105.335756990107	0.130242040414
1	757	107.469216231569	0.130242040414
1	762	108.209173767611	0.130242040414
1	767	108.461651239962	0.130242040414
1	774	110.693775788596	0.130242040414
1	777	110.82401782901	0.205537953793
1	782	111.443875564842	0.130242040414
1	787	113.414607360226	0.130242040414
1	792	114.380527591801	0.130242040414
1	797	115.378243482058	0.130242040414
1	802	115.986798439656	0.130242040414
1	807	116.787199019906	0.130242040414
1	812	117.6408568356	0.130242040414
1	817	118.487927334635	0.130242040414
1	822	119.838576684276	0.130242040414
1	827	121.907473080159	0.130242040414
1	832	122.090382322803	0.130242040414
1	837	122.373712863011	0.130242040414
1	844	122.610411572687	0.130242040414
1	847	122.740653613101	0.145095032482
1	854	122.887977784227	0.130242040414
1	857	123.018219824641	0.18211745438
1	862	123.871426144809	0.130242040414
1	867	126.714034735683	0.130242040414
1	872	128.154691207506	0.130242040414
1	877	130.987319165867	0.130242040414
1	882	133.375154175921	0.130242040414
1	887	134.157128339139	0.130242040414
1	892	135.230846689868	0.130242040414
1	897	135.467903060556	0.130242040414
1	902	135.750785268616	0.130242040414
1	907	136.369687718337	0.130242040414
1	912	137.770034295678	0.130242040414
1	919	138.500788183399	0.130242040414
1	922	138.631030223813	0.199863754554
1	929	139.324396795692	0.130242040414
1	934	139.454638836106	0.224667040843
1	937	139.58488087652	0.202062899344
1	942	140.002387845043	0.130242040414
1	947	141.573631867341	0.130242040414
1	954	143.47388542627	0.130242040414
1	957	143.604127466684	0.22641540114
1	962	146.43575520673	0.130242040414
1	967	146.970941130187	0.130242040414
1	974	147.766817138911	0.130242040414
1	977	147.897059179325	0.135402942364
1	984	148.107597265763	0.130242040414
1	987	148.237839306177	0.191061659131
1	992	148.377593809735	0.130242040414
1	997	148.649633372919	0.130242040414
1	1002	151.121434254616	0.130242040414
1	1007	152.820494863396	0.130242040414
1	1014	154.129412215367	0.130242040414
1	1017	154.259654255781	0.194131806034
1	1022	155.134827686566	0.130242040414
1	1027	156.6414301994	0.130242040414
1	1032	157.119118631196	0.130242040414
1	1037	158.086984910495	0.130242040414
1	1044	159.104826765435	0.130242040414
1	1047	159.235068805849	0.155287308739
1	1052	160.04137909303	0.130242040414
1	1058	160.527609228552	0.130242040414
1	1063	160.685988447977	0.130242040414
1	1070	161.256404425785	0.130242040414
1	1075	161.386646466199	0.171115531891
1	1080	161.516888506613	0.13635681945
1	1083	161.647130547027	0.138896849696
1	1088	162.08391836752	0.130242040414
1	1093	162.417039958571	0.130242040414
1	1098	162.581818882175	0.130242040414
1	1103	163.059644575476	0.130242040414
1	1108	163.48881396005	0.130242040414
1	1115	164.142543617515	0.130242040414
1	1118	164.272785657929	0.210823063145
1	1123	164.818152568945	0.130242040414
1	1128	165.540535595712	0.130242040414
1	1133	165.826882051929	0.130242040414
1	1140	166.475702036225	0.130242040414
1	1143	166.605944076639	0.259102341754
1	1148	167.249044233357	0.130242040414
1	1153	168.267252325843	0.130242040414
1	1158	168.808469484307	0.130242040414
1	1163	169.317035990473	0.130242040414
1	1170	169.878890214571	0.130242040414
1	1173	170.009132254985	0.153919551002
1	1178	171.414898291701	0.130242040414
1	1185	171.875772272672	0.130242040414
1	1188	172.006014313086	0.169856401279
1	1193	172.517035101095	0.130242040414
1	1198	173.605316740248	0.130242040414
1	1203	173.93790258155	0.130242040414
1	1208	174.140901203691	0.130242040414
1	1213	176.170386449269	0.130242040414
1	1218	177.210629505862	0.130242040414
1	1223	177.477485521351	0.130242040414
1	1228	179.286559903945	0.130242040414
1	1233	180.191103608682	0.130242040414
1	1238	180.655221236178	0.130242040414
1	1245	181.361855700455	0.130242040414
1	1248	181.492097740869	0.177440133433
1	1253	182.081968461278	0.130242040414
1	1258	182.913391434728	0.130242040414
1	1263	184.351204864089	0.130242040414
1	1270	185.321476211076	0.130242040414
1	1273	185.45171825149	0.218691214724
1	1278	187.364898401029	0.130242040414
1	1285	187.667383213569	0.130242040414
1	1290	187.797625253983	0.234459145164
1	1293	187.927867294397	0.220231691928
1	1300	188.456878380604	0.130242040414
1	1303	188.587120421018	0.165584489119
1	1308	189.234668877146	0.130242040414
1	1313	189.592033584305	0.130242040414
1	1318	190.422023347828	0.130242040414
1	1323	190.996436503929	0.130242040414
1	1328	191.400873746954	0.130242040414
1	1333	191.784849750225	0.130242040414
1	1340	192.063104431052	0.130242040414
1	1343	192.193346471466	0.216365025096
1	1348	192.463033619075	0.130242040414
1	1353	192.609173698314	0.130242040414
1	1358	195.002693454337	0.130242040414
1	1363	195.284242251493	0.130242040414
1	1370	195.523712415779	0.130242040414
1	1373	195.653954456193	0.204829456022
1	1378	195.992868325194	0.130242040414
1	1383	196.627894057157	0.130242040414
1	1388	196.796943559381	0.130242040414
1	1395	199.28612436555	0.130242040414
1	1398	199.416366405964	0.200025024285
1	1403	200.251871790467	0.130242040414
1	1409	200.681371273477	0.130242040414
1	1414	201.819305280516	0.130242040414
1	1419	202.486901643459	0.130242040414
1	1424	203.191615113707	0.130242040414
1	1429	203.452721850234	0.130242040414
1	1434	205.017491519275	0.130242040414
1	1441	205.550852574852	0.130242040414
1	1444	205.681094615266	0.1670960706
1	1449	206.53464266682	0.130242040414
1	1454	208.043678525366	0.130242040414
1	1461	208.842046464102	0.130242040414
1	1464	208.972288504516	0.149771830791
1	1469	209.684978282914	0.130242040414
1	1474	209.897844032219	0.130242040414
1	1479	211.51211837421	0.130242040414
1	1484	212.977735442479	0.130242040414
1	1489	215.1303796909	0.130242040414
1	1498	216.287267593733	0.130242040414
1	1501	216.417509634147	0.241944348505
1	1504	216.547751674561	0.343103340785
1	1509	218.067949153054	0.130242040414
1	1514	218.871768976226	0.130242040414
1	1521	219.760245031024	0.130242040414
1	1524	219.890487071438	0.250443835165
1	1529	223.444619976041	0.130242040414
1	1534	223.651270122488	0.130242040414
1	1541	224.398914014477	0.130242040414
1	1544	224.529156054891	0.139457821068
1	1549	224.888361180471	0.130242040414
1	1554	225.942873139178	0.130242040414
1	1559	226.374333692367	0.130242040414
1	1566	226.892857765538	0.130242040414
1	1569	227.023099805952	0.20838592899
1	1574	227.32104928	0.130242040414
1	1581	228.59517169026	0.130242040414
1	1590	228.725413730674	0.152046544046
1	1595	228.855655771088	0.218224805996
1	1598	228.985897811502	0.341538173514
1	1601	229.116139851916	0.39871320214
1	1604	229.24638189233	0.517385020247
1	1609	230.543733542553	0.130242040414
1	1614	230.703911646868	0.130242040414
1	1619	235.681812339217	0.130242040414
1	1624	235.84896776126	0.130242040414
1	1629	236.565121533211	0.130242040414
1	1634	236.895179105169	0.130242040414
1	1639	237.128536743902	0.130242040414
1	1646	238.139148887391	0.130242040414
1	1649	238.269390927805	0.171530719689
1	1654	239.459647162376	0.130242040414
1	1659	239.77969638732	0.130242040414
1	1664	240.848402818909	0.130242040414
1	1669	241.560729901191	0.130242040414
1	1674	242.988727355865	0.130242040414
1	1679	243.119277693171	0.130242040414
1	1684	243.452454612557	0.130242040414
1	1691	243.86998260117	0.130242040414
1	1696	244.000224641584	0.182888130898
1	1699	244.130466681998	0.241351421136
1	1704	245.719526644311	0.130242040414
1	1709	246.008021497152	0.130242040414
1	1714	246.181872664109	0.130242040414
1	1719	246.939774130313	0.130242040414
1	1724	247.91336080333	0.130242040414
1	1729	248.216032372173	0.130242040414
1	1734	250.130870703699	0.130242040414
1	1741	250.728792903216	0.130242040414
1	1746	250.85903494363	0.165349559859
1	1749	250.989276984044	0.247473525265
1	1754	251.168014814165	0.130242040414
1	1760	251.925094663968	0.130242040414
1	1767	253.048883962824	0.130242040414
1	1770	253.179126003238	0.227066011013
1	1775	254.152269237071	0.130242040414
1	1780	254.398044643158	0.130242040414
1	1785	254.725704357248	0.130242040414
1	1792	255.110066240545	0.130242040414
1	1795	255.240308280959	0.136678728978
1	1800	255.524104313647	0.130242040414
1	1805	255.824535952925	0.130242040414
1	1810	257.006862887455	0.130242040414
1	1815	257.336462466753	0.130242040414
1	1820	258.110514087011	0.130242040414
1	1825	258.992820661348	0.130242040414
1	1830	259.490089763599	0.130242040414
1	1835	260.478557282499	0.130242040414
1	1842	261.494211162339	0.130242040414
1	1845	261.624453202753	0.252480027029
1	1850	262.091423696768	0.130242040414
1	1855	263.193893801724	0.130242040414
1	1860	263.799963756457	0.130242040414
1	1867	264.169829303111	0.130242040414
1	1870	264.300071343525	0.249247294695
1	1875	264.527822682274	0.130242040414
1	1880	265.075768724478	0.130242040414
1	1885	265.413876938375	0.130242040414
1	1890	265.769435515021	0.130242040414
1	1895	267.41882543009	0.130242040414
1	1902	268.138707955106	0.130242040414
1	1905	268.26894999552	0.223246979784
1	1910	268.89618465284	0.130242040414
1	1915	269.745001494354	0.130242040414
1	1920	270.799795349352	0.130242040414
1	1925	272.307370257001	0.130242040414
1	1930	272.586539196683	0.130242040414
1	1935	272.737954959858	0.130242040414
1	1940	273.864279647038	0.130242040414
1	1945	274.454422183235	0.130242040414
1	1950	274.929975105508	0.130242040414
1	1957	275.427349067937	0.130242040414
1	1960	275.557591108351	0.247632452905
1	1965	275.738044108319	0.130242040414
1	1972	275.930123185732	0.130242040414
1	1975	276.060365226146	0.161062368871
1	1980	277.402141918226	0.130242040414
1	1985	280.219825578326	0.130242040414
1	1990	280.589000258301	0.130242040414
1	1995	280.7742271527	0.130242040414
1	2000	282.072351672786	0.130242040414
1	2005	282.452244923436	0.130242040414
1	2012	286.879220905807	0.130242040414
1	2015	287.009462946221	0.177676171612
1	2022	287.761692527457	0.130242040414
1	2025	287.891934567871	0.156850613769
1	2032	288.431026057837	0.130242040414
1	2035	288.561268098251	0.168191130811
1	2042	288.783825986644	0.130242040414
1	2045	288.914068027058	0.134392761701
1	2050	290.096373689846	0.130242040414
1	2055	290.871429416672	0.130242040414
1	2060	291.771124028043	0.130242040414
1	2067	293.197937896767	0.130242040414
1	2070	293.328179937181	0.154298159215
1	2075	293.920197720875	0.130242040414
1	2080	294.298452460046	0.130242040414
1	2085	295.317817429977	0.130242040414
1	2090	295.599195924609	0.130242040414
1	2095	296.379620230277	0.130242040414
1	2100	296.96032066655	0.130242040414
1	2107	297.282724716252	0.130242040414
1	2111	297.673004460851	0.506913849723
1	2118	298.095761552307	0.130242040414
1	2121	298.226003592721	0.167855043851
1	2126	299.021613176817	0.130242040414
1	2133	299.822796108398	0.130242040414
1	2136	299.953038148812	0.230380964334
1	2141	300.152955526461	0.130242040414
1	2148	300.643806278194	0.130242040414
1	2151	300.774048318608	0.152148035754
1	2156	301.142469593265	0.130242040414
1	2161	301.672502237265	0.130242040414
1	2166	303.859728632689	0.130242040414
1	2171	305.195616971475	0.130242040414
1	2176	305.824425913802	0.130242040414
1	2181	306.037257665392	0.130242040414
1	2186	309.105748259178	0.130242040414
1	2191	310.253164047228	0.130242040414
1	2198	310.825406448938	0.130242040414
1	2201	310.955648489352	0.240932184882
1	2206	311.1627780071	0.130242040414
1	2213	311.824372112034	0.130242040414
1	2216	311.954614152448	0.164901504636
1	2221	312.464645537143	0.130242040414
1	2226	313.612316187286	0.130242040414
1	2231	314.831725963274	0.130242040414
1	2236	315.939116746976	0.130242040414
1	2241	316.497413310488	0.130242040414
1	2246	317.015954247904	0.130242040414
1	2251	317.474152324051	0.130242040414
1	2256	318.153765329338	0.130242040414
1	2261	319.32897565586	0.130242040414
1	2266	319.969058568953	0.130242040414
1	2271	321.543301028909	0.130242040414
1	2276	322.477542770445	0.130242040414
1	2281	323.422835577717	0.130242040414
1	2286	324.298638176142	0.130242040414
1	2291	324.892398869037	0.130242040414
1	2296	326.809520725286	0.130242040414
1	2301	329.183837216814	0.130242040414
1	2308	329.794735641973	0.130242040414
1	2311	329.924977682387	0.182386933125
1	2316	330.253132319814	0.130242040414
1	2321	330.494246957936	0.130242040414
1	2326	331.138410004855	0.130242040414
1	2331	332.09361644709	0.130242040414
1	2336	332.672755410293	0.130242040414
1	2341	334.992271566007	0.130242040414
1	2346	335.160192907321	0.130242040414
1	2351	335.446648929137	0.130242040414
1	2356	336.278650081957	0.130242040414
1	2361	338.074956248091	0.130242040414
1	2366	339.131488514933	0.130242040414
1	2371	340.042100250919	0.130242040414
1	2376	340.966056513065	0.130242040414
1	2381	342.375531606034	0.130242040414
1	2386	343.952172187031	0.130242040414
1	2393	344.777807989074	0.130242040414
1	2396	344.908050029488	0.207515050982
1	2401	345.530127661531	0.130242040414
1	2406	345.966800016224	0.130242040414
1	2411	346.507905356338	0.130242040414
1	2416	347.585994267138	0.130242040414
1	2421	348.097557088721	0.130242040414
1	2426	349.26053165131	0.130242040414
1	2431	350.463839444807	0.130242040414
1	2436	350.776683975817	0.130242040414
1	2441	351.298303257976	0.130242040414
1	2446	352.544451246575	0.130242040414
1	2451	353.42711799171	0.130242040414
1	2456	353.578790534151	0.130242040414
1	2462	354.616686830077	0.130242040414
1	2467	354.963316850036	0.130242040414
1	2472	356.655376861697	0.130242040414
1	2477	357.251907073473	0.130242040414
1	2482	358.302475244812	0.130242040414
1	2491	359.262777232886	0.130242040414
1	2494	359.3930192733	0.155647259411
1	2497	359.523261313714	0.267300010852
1	2502	360.376276880185	0.130242040414
1	2507	360.602647235068	0.130242040414
1	2512	362.559636070216	0.130242040414
1	2517	363.297667470022	0.130242040414
1	2522	363.692665519941	0.130242040414
1	2527	366.585699262574	0.130242040414
1	2532	367.354655271243	0.130242040414
1	2537	368.446839408958	0.130242040414
1	2544	368.866434705151	0.130242040414
1	2547	368.996676745565	0.188098427086
1	2552	369.228073004966	0.130242040414
1	2557	370.429951394263	0.130242040414
1	2562	371.887700542683	0.130242040414
1	2567	372.097119064755	0.130242040414
1	2572	372.309027002532	0.130242040414
1	2579	372.830839499931	0.130242040414
1	2584	372.961081540345	0.219468342967
1	2587	373.091323580759	0.227109561931
1	2594	374.412760927603	0.130242040414
1	2597	374.543002968017	0.147035948529
1	2602	374.703956652744	0.130242040414
1	2607	375.59394023509	0.130242040414
1	2612	376.381185208584	0.130242040414
1	2617	376.897872695809	0.130242040414
1	2624	377.348004603077	0.130242040414
1	2627	377.478246643491	0.226890524365
1	2632	377.63163974407	0.130242040414
1	2637	377.774890177067	0.130242040414
1	2642	378.937697549764	0.130242040414
1	2647	379.436093059691	0.130242040414
1	2652	380.524319392862	0.130242040414
1	2657	380.688541461413	0.130242040414
1	2662	381.747190485754	0.130242040414
1	2667	382.267946640188	0.130242040414
1	2672	384.053298369862	0.130242040414
1	2677	385.468406077711	0.130242040414
1	2682	387.70826488818	0.130242040414
1	2689	388.20050757517	0.130242040414
1	2692	388.330749615584	0.226928589969
1	2697	388.973739895991	0.130242040414
1	2702	389.142819270908	0.130242040414
1	2707	390.063247874737	0.130242040414
1	2712	390.424766856855	0.130242040414
1	2717	390.714939490562	0.130242040414
1	2722	391.948565166133	0.130242040414
1	2727	393.098843335056	0.130242040414
1	2734	393.950125976852	0.130242040414
1	2741	394.080368017266	0.190790249459
1	2744	394.21061005768	0.215151664344
1	2747	394.340852098094	0.28651882727
1	2752	394.638663964775	0.130242040414
1	2757	395.016698207128	0.130242040414
1	2762	395.637090966675	0.130242040414
1	2767	396.582326992252	0.130242040414
1	2772	396.841912460428	0.130242040414
1	2779	397.013598073528	0.130242040414
1	2782	397.143840113942	0.212635209045
1	2787	397.571938599176	0.130242040414
1	2792	399.025624943285	0.130242040414
1	2799	399.213382437719	0.130242040414
1	2802	399.343624478133	0.140610662593
1	2807	400.208376011356	0.130242040414
1	2815	400.598655755955	0.219902831406
1	2818	400.728897796369	0.215932175403
1	2823	401.719530592711	0.130242040414
1	2828	401.946244922614	0.130242040414
1	2833	402.634212046705	0.130242040414
1	2838	403.153758025078	0.130242040414
1	2845	404.031280392805	0.130242040414
1	2850	404.161522433219	0.1364506821
1	2853	404.291764473633	0.202022316747
1	2860	404.676352933371	0.130242040414
1	2865	404.806594973785	0.219409307036
1	2868	404.936837014199	0.205584394691
1	2875	405.11831389901	0.130242040414
1	2878	405.248555939424	0.229231928634
1	2883	405.403574068433	0.130242040414
1	2888	405.765536005201	0.130242040414
1	2893	406.94035926903	0.130242040414
1	2898	408.796041479317	0.130242040414
1	2903	409.05115186915	0.130242040414
1	2908	409.532544971547	0.130242040414
1	2913	410.319113052542	0.130242040414
1	2918	410.65515755664	0.130242040414
1	2923	410.996502996253	0.130242040414
1	2928	413.826341831159	0.130242040414
1	2933	413.992245369668	0.130242040414
1	2938	414.82145576812	0.130242040414
1	2943	414.981882268028	0.130242040414
1	2948	415.236014925078	0.130242040414
1	2953	416.546506223773	0.130242040414
1	2958	418.017480817681	0.130242040414
1	2963	418.548050467303	0.130242040414
1	2968	420.07200994268	0.130242040414
1	2975	420.366762473648	0.130242040414
1	2980	420.497004514062	0.135969315832
1	2983	420.627246554476	0.184937042996
1	2990	420.981657750736	0.130242040414
1	2993	421.11189979115	0.216128639042
1	3000	421.353258118905	0.130242040414
1	3003	421.483500159319	0.15581894123
1	3008	421.935111414048	0.130242040414
1	3013	423.743521197078	0.130242040414
1	3018	425.031602472154	0.130242040414
1	3023	425.440457328417	0.130242040414
1	3028	426.633445408921	0.130242040414
1	3033	427.558641420284	0.130242040414
1	3040	429.435242743923	0.130242040414
1	3043	429.565484784337	0.134732010958
1	3048	429.896223587763	0.130242040414
1	3053	431.580222039423	0.130242040414
1	3058	432.476328405651	0.130242040414
1	3063	434.15678363097	0.130242040414
1	3068	435.505644527052	0.130242040414
1	3073	436.269906967261	0.130242040414
1	3078	436.936373849761	0.130242040414
1	3083	437.168967219668	0.130242040414
1	3088	438.82039901883	0.130242040414
1	3093	439.02342039109	0.130242040414
1	3098	439.416576955096	0.130242040414
1	3103	439.555119850218	0.130242040414
1	3110	443.315018472779	0.130242040414
1	3113	443.445260513193	0.172538498327
1	3118	443.686217598143	0.130242040414
1	3127	444.036777002411	0.130242040414
1	3130	444.167019042825	0.242785268337
1	3135	444.297261083239	0.302025822052
1	3138	444.427503123653	0.163030596903
1	3145	444.592009087519	0.130242040414
1	3148	444.722251127933	0.206819967783
1	3153	445.398218272817	0.130242040414
1	3158	447.96126155204	0.130242040414
1	3164	448.378045530132	0.130242040414
1	3169	448.770280512654	0.130242040414
1	3174	451.237023091124	0.130242040414
1	3179	451.559857913595	0.130242040414
1	3188	452.51842837147	0.130242040414
1	3191	452.648670411884	0.173422523677
1	3194	452.778912452298	0.275682821866
1	3199	453.189072423444	0.130242040414
1	3204	453.391812439071	0.130242040414
1	3209	453.807400524002	0.130242040414
1	3214	454.671869033785	0.130242040414
1	3221	455.061530972459	0.130242040414
1	3226	455.191773012873	0.231059984167
1	3229	455.322015053287	0.141488286231
1	3234	455.581276457928	0.130242040414
1	3239	457.512542250266	0.130242040414
1	3244	458.179132709755	0.130242040414
1	3249	458.429747315424	0.130242040414
1	3254	458.739607336926	0.130242040414
1	3259	459.019713124127	0.130242040414
1	3264	460.407631826387	0.130242040414
1	3269	461.048844346691	0.130242040414
1	3274	461.486789341421	0.130242040414
1	3279	462.330879834548	0.130242040414
1	3286	462.88166874124	0.130242040414
1	3289	463.011910781654	0.1771629966
1	3294	463.79266484644	0.130242040414
1	3299	464.131928180651	0.130242040414
1	3304	465.256381881629	0.130242040414
1	3309	465.54329442887	0.130242040414
1	3314	466.488143332346	0.130242040414
1	3321	466.771383524902	0.130242040414
1	3324	466.901625565316	0.25827059964
1	3333	467.246470861562	0.130242040414
1	3336	467.376712901976	0.195180333901
1	3339	467.50695494239	0.262814109802
1	3344	467.750885808068	0.130242040414
1	3349	469.236071929793	0.130242040414
1	3356	470.1088114063	0.130242040414
1	3361	470.239053446714	0.155069796247
1	3364	470.369295487128	0.251918948885
1	3369	470.685474108346	0.130242040414
1	3374	471.044907100803	0.130242040414
1	3379	474.227151719612	0.130242040414
1	3384	475.320473647054	0.130242040414
1	3389	475.927150382723	0.130242040414
1	3394	476.318735820598	0.130242040414
1	3399	477.981375854765	0.130242040414
1	3404	478.120894737049	0.130242040414
1	3409	479.773065289599	0.130242040414
1	3414	479.96367756066	0.130242040414
1	3419	480.858775132115	0.130242040414
1	3424	481.752746257422	0.130242040414
1	3429	482.355763975274	0.130242040414
1	3434	483.452811154695	0.130242040414
1	3439	484.753883574135	0.130242040414
1	3444	486.352367983335	0.130242040414
1	3451	486.505044690228	0.130242040414
1	3454	486.635286730642	0.148393862146
1	3461	488.656512828525	0.130242040414
1	3464	488.786754868939	0.15440643056
1	3471	489.189429013737	0.130242040414
1	3474	489.319671054151	0.13322601898
1	3479	489.608301737624	0.130242040414
1	3484	490.295578117192	0.130242040414
1	3489	490.848240544995	0.130242040414
1	3496	491.177787994765	0.130242040414
1	3501	491.308030035179	0.162863688157
1	3504	491.438272075593	0.229297158424
1	3509	495.236585899225	0.130242040414
1	3515	495.743075883056	0.130242040414
1	3522	496.060695519005	0.130242040414
1	3525	496.190937559419	0.257516859654
1	3530	497.92498022538	0.130242040414
1	3535	498.303764843642	0.130242040414
1	3542	499.102647758676	0.130242040414
1	3545	499.23288979909	0.238641563095
1	3550	499.752353099767	0.130242040414
1	3555	500.170454244591	0.130242040414
1	3562	502.103817139314	0.130242040414
1	3567	502.234059179728	0.198992189489
1	3570	502.364301220142	0.1801545603
1	3575	504.954662804554	0.130242040414
1	3580	505.67210566746	0.130242040414
1	3585	507.327007238309	0.130242040414
1	3590	508.567451430959	0.130242040414
1	3595	509.617228328303	0.130242040414
1	3600	510.188181056121	0.130242040414
1	3605	511.147207481306	0.130242040414
1	3610	511.400400471548	0.130242040414
1	3617	512.311313848738	0.130242040414
1	3620	512.441555889152	0.231999806461
1	3625	513.033688807889	0.130242040414
1	3630	513.165539679931	0.130242040414
1	3635	513.851208946397	0.130242040414
1	3640	514.666113895207	0.130242040414
1	3645	514.926571803792	0.130242040414
1	3652	516.19956078095	0.130242040414
1	3655	516.329802821364	0.210503106282
1	3660	517.362638713121	0.130242040414
1	3665	518.77412472875	0.130242040414
1	3670	519.145493536207	0.130242040414
1	3675	519.656285603284	0.130242040414
1	3680	520.751814023511	0.130242040414
1	3685	521.199506026465	0.130242040414
1	3690	521.479552552288	0.130242040414
1	3695	522.199860412863	0.130242040414
1	3700	522.909967005738	0.130242040414
1	3707	523.936182086913	0.130242040414
1	3710	524.066424127327	0.185868887715
1	3715	526.796983243337	0.130242040414
1	3720	527.504357774803	0.130242040414
1	3725	528.996354097163	0.130242040414
1	3730	529.239551617175	0.130242040414
1	3735	529.484662814531	0.130242040414
1	3740	530.068279978846	0.130242040414
1	3745	532.18637874885	0.130242040414
1	3750	533.436414824223	0.130242040414
1	3755	533.597792965505	0.130242040414
1	3760	534.163190163753	0.130242040414
1	3767	534.496423969648	0.130242040414
1	3770	534.626666010062	0.168674926443
1	3777	534.810807156721	0.130242040414
1	3780	534.941049197135	0.228176112815
1	3785	535.760542949484	0.130242040414
1	3790	535.966699854479	0.130242040414
1	3795	536.461478364149	0.130242040414
1	3800	536.954273347652	0.130242040414
1	3805	537.313981652324	0.130242040414
1	3810	537.997474307676	0.130242040414
1	3815	538.462714124519	0.130242040414
1	3822	539.318803912658	0.130242040414
1	3827	539.449045953072	0.194066076445
1	3830	539.579287993486	0.184394845614
1	3835	540.286739130512	0.130242040414
1	3840	541.324626935979	0.130242040414
1	3845	541.650759291532	0.130242040414
1	3850	542.099503076216	0.130242040414
1	3855	542.744115978034	0.130242040414
1	3860	543.914366779225	0.130242040414
1	3866	544.304646523824	0.202879039249
1	3871	545.259154698482	0.130242040414
1	3876	546.074102320262	0.130242040414
1	3881	546.975443503552	0.130242040414
1	3886	547.742231805402	0.130242040414
1	3893	548.290254067957	0.130242040414
1	3896	548.420496108371	0.248601556635
1	3901	548.792316695047	0.130242040414
1	3906	548.987961818846	0.130242040414
1	3911	550.593419427081	0.130242040414
1	3916	550.919355326902	0.130242040414
1	3921	551.929241332587	0.130242040414
1	3926	552.299710479884	0.130242040414
1	3931	554.687130668677	0.130242040414
1	3936	555.105069269595	0.130242040414
1	3941	555.910347728395	0.130242040414
1	3946	556.361275790125	0.130242040414
1	3951	557.654074164117	0.130242040414
1	3956	557.975485053901	0.130242040414
1	3961	559.609899927139	0.130242040414
1	3966	559.802568866438	0.130242040414
1	3971	560.014468636871	0.130242040414
1	3976	561.331422753939	0.130242040414
1	3983	561.923643309758	0.130242040414
1	3986	562.053885350172	0.185516842448
1	3993	563.425258466498	0.130242040414
1	3998	563.555500506912	0.150995603803
1	4001	563.685742547326	0.13853329301
1	4006	563.911663003987	0.130242040414
1	4013	565.693499826434	0.130242040414
1	4016	565.823741866848	0.145099361247
1	4021	566.42085737951	0.130242040414
1	4026	567.484494625004	0.130242040414
1	4031	568.523252692125	0.130242040414
1	4038	569.083590006438	0.130242040414
1	4041	569.213832046852	0.252214252398
1	4046	569.424307475379	0.130242040414
1	4051	571.496807314938	0.130242040414
1	4056	571.94262162107	0.130242040414
1	4061	572.84017614392	0.130242040414
1	4066	573.80498756764	0.130242040414
1	4071	574.667772355741	0.130242040414
1	4076	575.039158987138	0.130242040414
1	4081	575.255481891072	0.130242040414
1	4086	576.545519873989	0.130242040414
1	4091	577.069255265656	0.130242040414
1	4096	578.390135656197	0.130242040414
1	4101	579.04514162219	0.130242040414
1	4106	579.788584334436	0.130242040414
1	4111	580.158352967948	0.130242040414
1	4116	580.369499474552	0.130242040414
1	4121	581.396533855338	0.130242040414
1	4128	581.912213760831	0.130242040414
1	4131	582.042455801245	0.20963877106
1	4136	582.307818420309	0.130242040414
1	4141	582.566683644825	0.130242040414
1	4146	583.592584109513	0.130242040414
1	4151	584.274088117201	0.130242040414
1	4156	584.469952079357	0.130242040414
1	4163	584.789549892852	0.130242040414
1	4166	584.919791933266	0.21735710461
1	4171	585.863095420007	0.130242040414
1	4176	587.016278090767	0.130242040414
1	4181	588.191702819149	0.130242040414
1	4186	589.377475953092	0.130242040414
1	4191	591.433083816287	0.130242040414
1	4196	593.386199107496	0.130242040414
1	4201	593.862556951444	0.130242040414
1	4206	595.157936735258	0.130242040414
1	4211	595.796344974619	0.130242040414
1	4217	596.645826961335	0.130242040414
1	4222	597.090874764011	0.130242040414
1	4227	597.319062417725	0.130242040414
1	4234	597.789356977149	0.130242040414
1	4237	597.919599017563	0.24920291817
1	4242	599.139391009853	0.130242040414
1	4247	599.697094337957	0.130242040414
1	4252	602.18971024325	0.130242040414
1	4259	602.493112685728	0.130242040414
1	4262	602.623354726142	0.256210202639
1	4267	603.502001330301	0.130242040414
1	4272	603.786790084319	0.130242040414
1	4277	604.523187919138	0.130242040414
1	4282	605.083513834071	0.130242040414
1	4293	605.407581358115	0.130242040414
1	4296	605.537823398529	0.254306008515
1	4299	605.668065438943	0.374337862712
1	4304	605.798307479357	0.41616469294
1	4307	605.928549519771	0.194490191199
1	4312	606.221836035899	0.130242040414
1	4317	607.134658554897	0.130242040414
1	4324	607.85442078445	0.130242040414
1	4327	607.984662824864	0.216153974993
1	4332	608.316594199797	0.130242040414
1	4337	608.750736891664	0.130242040414
1	4342	608.939505312628	0.130242040414
1	4349	609.301192497841	0.130242040414
1	4354	609.431434538255	0.146804838826
1	4357	609.561676578669	0.151683620121
1	4362	610.015774137149	0.130242040414
1	4367	610.149041458521	0.130242040414
1	4372	611.978342856006	0.130242040414
1	4377	612.830931638375	0.130242040414
1	4384	613.602608936939	0.130242040414
1	4387	613.732850977353	0.131947862484
1	4392	614.118214821024	0.130242040414
1	4397	614.744108337544	0.130242040414
1	4402	615.627749526677	0.130242040414
1	4407	616.008247718285	0.130242040414
1	4414	616.352907263896	0.130242040414
1	4417	616.48314930431	0.146105656345
1	4422	617.50687657686	0.130242040414
1	4427	617.830088449177	0.130242040414
1	4432	617.994590897877	0.130242040414
1	4437	618.417423379861	0.130242040414
1	4442	618.657479741794	0.130242040414
1	4447	618.996047240834	0.130242040414
1	4452	619.562400244142	0.130242040414
1	4457	619.960005841882	0.130242040414
1	4462	620.193263633807	0.130242040414
1	4467	621.294568514976	0.130242040414
1	4472	622.628467008829	0.130242040414
1	4477	623.213802888763	0.130242040414
1	4482	623.624990113938	0.130242040414
1	4487	624.390494192416	0.130242040414
1	4492	625.161624081566	0.130242040414
1	4497	626.429160095168	0.130242040414
1	4502	627.25416232981	0.130242040414
1	4507	627.987128728108	0.130242040414
1	4512	628.804748277143	0.130242040414
1	4517	629.076923042716	0.130242040414
1	4524	629.714521238598	0.130242040414
1	4527	629.844763279012	0.242516496266
1	4532	630.059174395628	0.130242040414
1	4537	631.254997421013	0.130242040414
1	4542	631.445627880581	0.130242040414
1	4547	632.531863186879	0.130242040414
1	4552	633.480527281652	0.130242040414
1	4557	634.686669087091	0.130242040414
1	4562	636.219221630356	0.130242040414
1	4568	636.898731449285	0.130242040414
1	4573	637.312532364502	0.130242040414
1	4580	638.043926049847	0.130242040414
1	4583	638.174168090261	0.156792638813
1	4588	638.918436571027	0.130242040414
1	4593	640.193908864017	0.130242040414
1	4600	640.669150530846	0.130242040414
1	4605	640.79939257126	0.161767881285
1	4608	640.929634611674	0.196361236823
1	4613	641.358712105101	0.130242040414
1	4618	642.210438917785	0.130242040414
1	4623	642.358141734233	0.130242040414
1	4628	642.552969351369	0.130242040414
1	4635	643.18395661984	0.130242040414
1	4638	643.314198660254	0.23526859651
1	4643	643.764490348805	0.130242040414
1	4648	644.443995772731	0.130242040414
1	4653	645.896597206177	0.130242040414
1	4658	646.145266879989	0.130242040414
1	4665	646.643669099364	0.130242040414
1	4668	646.773911139778	0.156668535681
1	4673	647.515582884647	0.130242040414
1	4678	647.82392752172	0.130242040414
1	4683	648.40063113796	0.130242040414
1	4688	648.838241265065	0.130242040414
1	4693	651.586353373607	0.130242040414
1	4698	652.720710969377	0.130242040414
1	4703	652.955185846194	0.130242040414
1	4710	654.327662094087	0.130242040414
1	4713	654.457904134501	0.205019971523
1	4718	655.416067371552	0.130242040414
1	4723	655.606334965347	0.130242040414
1	4732	657.02586992659	0.130242040414
1	4735	657.156111967004	0.172338681375
1	4740	657.286354007418	0.288296796568
1	4743	657.416596047832	0.223658441509
1	4748	657.758278785255	0.130242040414
1	4755	658.234689366829	0.130242040414
1	4758	658.364931407243	0.260006773567
1	4763	658.86370205993	0.130242040414
1	4768	659.359881988346	0.130242040414
1	4773	659.562245822342	0.130242040414
1	4778	660.4561363548	0.130242040414
1	4785	661.502385947796	0.130242040414
1	4788	661.63262798821	0.163375343207
1	4795	662.264721248018	0.130242040414
1	4798	662.394963288432	0.238958489372
1	4807	664.287727078657	0.130242040414
1	4810	664.417969119071	0.256596809337
1	4813	664.548211159485	0.384781934027
1	4820	664.936357640715	0.130242040414
1	4823	665.066599681129	0.195313859588
1	4828	665.311950762104	0.130242040414
1	4833	665.470513212428	0.130242040414
1	4840	665.981620514846	0.130242040414
1	4843	666.11186255526	0.141597098547
1	4848	669.148715298157	0.130242040414
1	4855	669.398540292277	0.130242040414
1	4858	669.528782332691	0.178413562315
1	4865	669.997634808521	0.130242040414
1	4868	670.127876848935	0.145173713166
1	4875	671.200223126086	0.130242040414
1	4880	671.3304651665	0.174129618918
1	4883	671.460707206914	0.205041821169
1	4888	675.09110369257	0.130242040414
1	4893	675.548110288087	0.130242040414
1	4898	677.293971303494	0.130242040414
1	4903	678.073497274896	0.130242040414
1	4908	678.287293733963	0.130242040414
1	4913	678.896859603409	0.130242040414
1	4919	679.60527761433	0.130242040414
1	4924	680.497047684672	0.130242040414
1	4929	681.042345191419	0.130242040414
1	4934	681.416538983639	0.130242040414
1	4939	682.735636648876	0.130242040414
1	4944	684.447807896163	0.130242040414
1	4949	684.921123407262	0.130242040414
1	4954	687.392814634066	0.130242040414
1	4959	688.677894883882	0.130242040414
1	4964	691.739160081049	0.130242040414
1	4969	692.346733106289	0.130242040414
1	4974	694.425998167931	0.130242040414
1	4979	696.300267766802	0.130242040414
1	4986	696.545618549641	0.130242040414
1	4989	696.675860590055	0.183327576661
1	4994	699.207063540003	0.130242040414
1	5001	700.299014086268	0.130242040414
1	5004	700.429256126682	0.186212327815
1	5009	700.702773742053	0.130242040414
1	5014	701.200779898175	0.130242040414
1	5019	702.738936342658	0.130242040414
1	5026	704.443445600788	0.130242040414
1	5029	704.573687641202	0.238012480497
1	5034	705.284087494611	0.130242040414
1	5039	705.683464745728	0.130242040414
1	5044	706.163426338688	0.130242040414
1	5051	706.568446686181	0.130242040414
1	5054	706.698688726595	0.177388397075
1	5059	707.315812705897	0.130242040414
1	5064	709.416686112144	0.130242040414
1	5069	710.995208050253	0.130242040414
1	5074	711.205205191549	0.130242040414
1	5079	711.617833212058	0.130242040414
1	5084	714.010643676942	0.130242040414
1	5089	714.172501461628	0.130242040414
1	5094	714.539777214987	0.130242040414
1	5099	714.807954499709	0.130242040414
1	5106	714.963946955136	0.130242040414
1	5109	715.09418899555	0.255774490787
1	5114	715.47693581247	0.130242040414
1	5119	715.707863455658	0.130242040414
1	5124	716.434464576708	0.130242040414
1	5129	719.847328900146	0.130242040414
1	5134	722.656366723872	0.130242040414
1	5139	723.24670707821	0.130242040414
1	5144	724.337804816815	0.130242040414
1	5149	724.974351171249	0.130242040414
1	5156	725.192799787764	0.130242040414
1	5159	725.323041828178	0.187726388443
1	5166	725.683108658281	0.130242040414
1	5169	725.813350698695	0.132530642444
1	5174	726.577719962567	0.130242040414
1	5181	727.781635297946	0.130242040414
1	5184	727.91187733836	0.163732776753
1	5191	729.364092136021	0.130242040414
1	5194	729.494334176435	0.177084316679
1	5199	729.885042151629	0.130242040414
1	5204	731.11174040938	0.130242040414
1	5209	731.50664660621	0.130242040414
1	5214	732.492050290586	0.130242040414
1	5219	732.652493348206	0.130242040414
1	5224	732.945688229537	0.130242040414
1	5229	733.16293728902	0.130242040414
1	5234	734.357014558018	0.130242040414
1	5239	736.954256407149	0.130242040414
1	5244	737.922088926565	0.130242040414
1	5249	738.472685491161	0.130242040414
1	5254	738.789487402419	0.130242040414
1	5259	738.944064303521	0.130242040414
1	5264	739.443009813714	0.130242040414
1	5270	740.033050495341	0.130242040414
1	5277	741.089941623505	0.130242040414
1	5280	741.220183663919	0.188682736656
1	5287	742.022683308046	0.130242040414
1	5290	742.15292534846	0.198909978298
1	5295	742.656529331728	0.130242040414
1	5300	743.928064893355	0.130242040414
1	5305	744.345033827604	0.130242040414
1	5310	745.215042865563	0.130242040414
1	5315	745.437482938652	0.130242040414
1	5320	746.187026708879	0.130242040414
1	5325	747.245788565856	0.130242040414
1	5330	747.793308048472	0.130242040414
1	5335	748.502327169491	0.130242040414
1	5340	748.672019883627	0.130242040414
1	5345	749.030409799487	0.130242040414
1	5350	749.543985561641	0.130242040414
1	5355	749.795760378741	0.130242040414
1	5360	749.978184936094	0.130242040414
1	5365	750.160829904238	0.130242040414
1	5370	750.373280634919	0.130242040414
1	5375	750.681914034878	0.130242040414
1	5380	751.583585548463	0.130242040414
1	5385	752.130173976305	0.130242040414
1	5390	752.382730991313	0.130242040414
1	5395	753.579124292623	0.130242040414
1	5400	754.032472255874	0.130242040414
1	5405	754.706387416751	0.130242040414
1	5410	755.074959569006	0.130242040414
1	5415	756.233743850129	0.130242040414
1	5420	756.393405588853	0.130242040414
1	5425	756.53164521784	0.130242040414
1	5432	756.81460449271	0.130242040414
1	5435	756.944846533124	0.200890790186
1	5440	760.176916910553	0.130242040414
1	5445	761.494450140171	0.130242040414
1	5450	761.845533444527	0.130242040414
1	5455	764.744880439945	0.130242040414
1	5460	764.930924656526	0.130242040414
1	5465	766.530309332242	0.130242040414
1	5470	767.136950969478	0.130242040414
1	5475	767.349917556658	0.130242040414
1	5482	767.875764060768	0.130242040414
1	5485	768.006006101182	0.252995108875
1	5492	768.152049744941	0.130242040414
1	5495	768.282291785355	0.228733988065
1	5500	769.617890251853	0.130242040414
1	5505	771.642660115146	0.130242040414
1	5510	772.598552864346	0.130242040414
1	5515	775.398398049611	0.130242040414
1	5520	775.583615853575	0.130242040414
1	5525	780.048704189225	0.130242040414
1	5530	780.461702146603	0.130242040414
1	5535	780.990866215217	0.130242040414
1	5540	781.726068189206	0.130242040414
1	5547	782.225040759566	0.130242040414
1	5550	782.35528279998	0.217465756163
1	5555	782.697660005267	0.130242040414
1	5560	782.915966082356	0.130242040414
1	5565	783.696344783337	0.130242040414
1	5570	784.670950184333	0.130242040414
1	5575	785.032179255088	0.130242040414
1	5580	785.554486751629	0.130242040414
1	5585	788.728697521508	0.130242040414
1	5592	789.20604044083	0.130242040414
1	5595	789.336282481244	0.232850705372
1	5600	790.696768404959	0.130242040414
1	5605	790.904816703059	0.130242040414
1	5610	791.333999986456	0.130242040414
1	5615	791.790862183909	0.130242040414
1	5621	792.965385352173	0.130242040414
1	5626	793.293995497708	0.130242040414
1	5631	794.934332547261	0.130242040414
1	5636	795.727886340768	0.130242040414
1	5641	797.4718927939	0.130242040414
1	5646	798.268429548422	0.130242040414
1	5651	800.330128267238	0.130242040414
1	5656	801.819481390642	0.130242040414
1	5661	802.378617188319	0.130242040414
1	5666	802.768915011117	0.130242040414
1	5671	802.955302819196	0.130242040414
1	5676	803.11092860736	0.130242040414
1	5681	804.927156024142	0.130242040414
1	5686	805.08336250431	0.130242040414
1	5691	807.077323664646	0.130242040414
1	5698	808.037825501683	0.130242040414
1	5701	808.168067542097	0.140053218918
1	5708	809.303995803049	0.130242040414
1	5711	809.434237843463	0.211485310335
1	5716	810.92472503113	0.130242040414
1	5721	811.19572585135	0.130242040414
1	5726	813.081499690746	0.130242040414
1	5731	814.278242833654	0.130242040414
1	5736	816.724096661028	0.130242040414
1	5741	818.403026850214	0.130242040414
1	5746	819.638309220785	0.130242040414
1	5751	819.925844483407	0.130242040414
1	5756	820.860657980155	0.130242040414
1	5761	823.133570602956	0.130242040414
1	5766	823.331078345115	0.130242040414
1	5771	824.161505142713	0.130242040414
1	5776	825.519838891377	0.130242040414
1	5781	825.897760555846	0.130242040414
1	5786	827.127021929944	0.130242040414
1	5791	828.521224164751	0.130242040414
1	5796	828.839913869582	0.130242040414
1	5801	829.074216430359	0.130242040414
1	5806	829.344608529903	0.130242040414
1	5811	830.057059178168	0.130242040414
1	5816	832.142863651618	0.130242040414
1	5821	833.539695696142	0.130242040414
1	5828	834.312952424382	0.130242040414
1	5831	834.443194464796	0.179382663195
1	5838	834.576901151051	0.130242040414
1	5841	834.707143191465	0.158770234045
1	5846	835.860944498677	0.130242040414
1	5851	836.174775394586	0.130242040414
1	5856	836.516661363598	0.130242040414
1	5861	836.722542884347	0.130242040414
1	5866	837.033545725975	0.130242040414
1	5871	838.397305413105	0.130242040414
1	5876	840.646775646219	0.130242040414
1	5881	841.196144842663	0.130242040414
1	5886	842.241225229214	0.130242040414
1	5893	842.67683371167	0.130242040414
1	5896	842.807075752084	0.236441244968
1	5901	843.44050926446	0.130242040414
1	5908	844.20647846206	0.130242040414
1	5911	844.336720502474	0.226204917342
1	5916	844.937199069373	0.130242040414
1	5921	845.117856577136	0.130242040414
1	5926	845.845717335103	0.130242040414
1	5931	846.241320289188	0.130242040414
1	5938	846.683850598732	0.130242040414
1	5941	846.814092639146	0.142025347422
1	5946	848.200920826382	0.130242040414
1	5953	848.515556057669	0.130242040414
1	5956	848.645798098083	0.173772262226
1	5961	849.399948549331	0.130242040414
1	5966	851.418311870408	0.130242040414
1	5972	852.538143006559	0.130242040414
1	5977	854.661737440734	0.130242040414
1	5982	855.010166151284	0.130242040414
1	5987	856.477275063609	0.130242040414
1	5992	856.701470704582	0.130242040414
1	5997	857.129755655379	0.130242040414
1	6002	857.793025435737	0.130242040414
1	6007	858.804744404915	0.130242040414
1	6012	860.039776615815	0.130242040414
1	6017	860.383088228417	0.130242040414
1	6024	860.729356357808	0.130242040414
1	6027	860.859598398222	0.257091113681
1	6032	863.501934289408	0.130242040414
1	6037	863.833550602699	0.130242040414
1	6042	864.361288514756	0.130242040414
1	6047	865.131965943434	0.130242040414
1	6052	865.357762868223	0.130242040414
1	6057	866.777772608043	0.130242040414
1	6062	867.447230540192	0.130242040414
1	6067	867.859268186771	0.130242040414
1	6072	868.656173467873	0.130242040414
1	6079	868.79780653467	0.130242040414
1	6082	868.928048575084	0.250963081175
1	6087	869.491856350238	0.130242040414
1	6092	870.014500087343	0.130242040414
1	6097	870.790323000198	0.130242040414
1	6102	870.956875598346	0.130242040414
1	6107	871.663340096244	0.130242040414
1	6112	875.589144995498	0.130242040414
1	6117	876.427129249216	0.130242040414
1	6122	878.122702085009	0.130242040414
1	6127	878.882428435319	0.130242040414
1	6132	879.054195475479	0.130242040414
1	6139	879.757170521877	0.130242040414
1	6142	879.887412562291	0.172382671887
1	6147	880.438901382014	0.130242040414
1	6152	882.630032699688	0.130242040414
1	6159	883.373256804589	0.130242040414
1	6164	883.503498845003	0.165627554969
1	6167	883.633740885417	0.208975090887
1	6172	883.932471129898	0.130242040414
1	6177	884.138089897024	0.130242040414
1	6184	884.351247384595	0.130242040414
1	6189	884.481489425009	0.166245366186
1	6192	884.611731465423	0.154748897787
1	6197	885.094864530549	0.130242040414
1	6202	885.72832697239	0.130242040414
1	6209	886.406774168506	0.130242040414
1	6214	886.53701620892	0.236708763595
1	6217	886.667258249334	0.253167513949
1	6222	889.069392372452	0.130242040414
1	6227	890.59721876794	0.130242040414
1	6232	891.415813544161	0.130242040414
1	6237	894.532692099882	0.130242040414
1	6242	896.664242106674	0.130242040414
1	6247	897.761829370483	0.130242040414
1	6254	898.139693061749	0.130242040414
1	6257	898.269935102163	0.251724074179
1	6262	898.796802027894	0.130242040414
1	6267	898.958540860776	0.130242040414
1	6272	899.299748982651	0.130242040414
1	6277	899.938208548291	0.130242040414
1	6282	900.412095747825	0.130242040414
1	6287	900.66280922058	0.130242040414
1	6294	902.334209968451	0.130242040414
1	6297	902.464452008865	0.152478965775
1	6302	903.741487321825	0.130242040414
1	6307	904.001365950149	0.130242040414
1	6312	904.517852896736	0.130242040414
1	6317	904.864165166677	0.130242040414
1	6323	905.254444911276	0.205512397482
1	6328	905.536409206313	0.130242040414
1	6333	906.242283338768	0.130242040414
1	6338	907.47338308678	0.130242040414
1	6343	907.77531770841	0.130242040414
1	6348	908.077197509511	0.130242040414
1	6355	908.27990190516	0.130242040414
1	6358	908.410143945574	0.248688048248
1	6363	909.384361356663	0.130242040414
1	6368	909.660752937481	0.130242040414
1	6373	910.523082373384	0.130242040414
1	6378	910.952180481117	0.130242040414
1	6385	911.756826263146	0.130242040414
1	6388	911.88706830356	0.233596550748
1	6393	912.503326349632	0.130242040414
1	6398	912.842135924679	0.130242040414
1	6405	913.620816637878	0.130242040414
1	6408	913.751058678292	0.240618076536
1	6413	913.885537170192	0.130242040414
1	6418	914.114433781665	0.130242040414
1	6423	914.759635828684	0.130242040414
1	6428	918.138023053348	0.130242040414
1	6433	918.315105281302	0.130242040414
1	6438	921.046396446006	0.130242040414
1	6445	921.345350049012	0.130242040414
1	6448	921.475592089426	0.236952478287
1	6453	922.750767436804	0.130242040414
1	6458	923.860980371384	0.130242040414
1	6463	924.53184543948	0.130242040414
1	6470	924.794981362738	0.130242040414
1	6473	924.925223403152	0.158520575458
1	6480	925.210891390342	0.130242040414
1	6483	925.341133430756	0.167408478807
1	6488	925.555488448575	0.130242040414
1	6495	926.93846614112	0.130242040414
1	6498	927.068708181534	0.159627304054
1	6503	927.498515879474	0.130242040414
1	6508	929.470833239076	0.130242040414
1	6515	929.632397230574	0.130242040414
1	6518	929.762639270988	0.161598154918
1	6523	930.302625994867	0.130242040414
1	6528	930.442853993267	0.130242040414
1	6533	931.016434827202	0.130242040414
1	6538	931.900894665047	0.130242040414
1	6543	932.114012876296	0.130242040414
1	6550	932.677386653631	0.130242040414
1	6553	932.807628694045	0.234603862075
1	6558	934.086949681695	0.130242040414
1	6563	934.617217953691	0.130242040414
1	6568	935.139499999542	0.130242040414
1	6573	935.421119094562	0.130242040414
1	6578	935.576995974435	0.130242040414
1	6583	935.765233189031	0.130242040414
1	6588	936.173062788779	0.130242040414
1	6593	936.495390233658	0.130242040414
1	6598	937.459315357821	0.130242040414
1	6603	939.10400299307	0.130242040414
1	6608	939.970838908236	0.130242040414
1	6613	941.167800048917	0.130242040414
1	6618	941.558855363889	0.130242040414
1	6623	942.317147417147	0.130242040414
1	6628	942.802629656598	0.130242040414
1	6635	942.937737339155	0.130242040414
1	6638	943.067979379569	0.242228189795
1	6643	943.591312397772	0.130242040414
1	6648	947.1763994829	0.130242040414
1	6657	947.348054916374	0.130242040414
1	6660	947.478296956788	0.16603191638
1	6663	947.608538997202	0.274048476658
1	6670	948.034030166015	0.130242040414
1	6674	948.424309910614	0.397866932961
1	6679	948.617706129346	0.130242040414
1	6684	948.844941997753	0.130242040414
1	6689	949.705714476064	0.130242040414
1	6694	950.210056307458	0.130242040414
1	6701	951.277378651809	0.130242040414
1	6704	951.407620692223	0.167697799255
1	6709	952.170951333783	0.130242040414
1	6714	953.294222052069	0.130242040414
1	6719	954.467149259888	0.130242040414
1	6724	955.296517354379	0.130242040414
1	6729	956.078077581021	0.130242040414
1	6734	956.968786313699	0.130242040414
1	6739	957.240449582277	0.130242040414
1	6744	957.80906128012	0.130242040414
1	6749	958.532688232693	0.130242040414
1	6754	958.700900763669	0.130242040414
1	6759	959.598762290805	0.130242040414
1	6766	960.877627703009	0.130242040414
1	6769	961.007869743423	0.173717743721
1	6774	961.328586125315	0.130242040414
1	6779	962.66578661009	0.130242040414
1	6784	962.9879889865	0.130242040414
1	6789	963.951106174233	0.130242040414
1	6794	964.208032479085	0.130242040414
1	6803	966.007105498326	0.130242040414
1	6806	966.13734753874	0.227096129673
1	6809	966.267589579154	0.311641316673
1	6814	966.959677380431	0.130242040414
1	6819	967.219355680023	0.130242040414
1	6826	967.394771838987	0.130242040414
1	6829	967.525013879401	0.250896134259
1	6834	968.344396855198	0.130242040414
1	6841	968.623217466163	0.130242040414
1	6846	968.753459506577	0.195735748638
1	6849	968.883701546991	0.180629281786
1	6854	969.06087555317	0.130242040414
1	6859	969.761409699841	0.130242040414
1	6864	970.137621132629	0.130242040414
1	6869	970.404571606487	0.130242040414
1	6874	970.98878717421	0.130242040414
1	6879	972.162521774235	0.130242040414
1	6884	973.287112761299	0.130242040414
1	6889	974.794920578027	0.130242040414
1	6894	977.780361630488	0.130242040414
1	6899	978.63499051689	0.130242040414
1	6904	978.942165312669	0.130242040414
1	6909	979.573563010299	0.130242040414
1	6914	979.807994255847	0.130242040414
1	6919	980.195757066132	0.130242040414
1	6924	982.261067662342	0.130242040414
1	6929	982.612701447231	0.130242040414
1	6934	983.184962864891	0.130242040414
1	6939	983.881583009241	0.130242040414
1	6946	984.651282634995	0.130242040414
1	6949	984.781524675409	0.168981339901
1	6954	985.470306794461	0.130242040414
1	6959	985.971465456235	0.130242040414
1	6964	986.753349665465	0.130242040414
1	6969	987.297419547997	0.130242040414
1	6974	987.695312450563	0.130242040414
1	6981	988.033244180409	0.130242040414
1	6986	988.163486220823	0.154621241766
1	6989	988.293728261237	0.247421731846
1	6994	989.231274427527	0.130242040414
1	6999	989.594329281691	0.130242040414
1	7004	991.528826289391	0.130242040414
1	7011	992.023248800478	0.130242040414
1	7014	992.153490840892	0.231647999442
1	7019	992.471938482626	0.130242040414
1	7025	994.021762263229	0.130242040414
1	7030	998.59037702439	0.130242040414
1	7035	998.958523746235	0.130242040414
1	7040	999.192406096622	0.130242040414
2	5	1.41032523444	0
2	10	1.751587915054	0
2	15	2.597304782704	0
2	20	2.858803444583	0
2	25	3.344479997807	0
2	32	3.941702253612	0
2	35	4.071944294026	0.127874998124
2	42	4.800810232376	0
2	47	4.93105227279	0.019172865922
2	50	5.061294313204	0.009887539457
2	55	5.24906926307	0
2	60	5.604352431351	0
2	65	8.638324869955	0
2	70	8.895931549706	0
2	75	9.1583211187	0
2	80	10.104016903962	0
2	85	10.336637083394	0
2	92	12.276301390298	0
2	95	12.406543430712	0.105461097142
2	100	13.685913836231	0
2	105	15.519522435935	0
2	110	15.888229424792	0
2	117	16.9146252342	0
2	120	17.044867274614	0.089709293112
2	127	18.250580374213	0
2	132	18.380822414627	0.073281992825
2	135	18.511064455041	0.117518061432
2	140	20.189364312222	0
2	145	20.889615880972	0
2	150	21.440566518122	0
2	155	21.761161652474	0
2	160	22.210422777482	0
2	165	23.991281772302	0
2	172	24.192607848472	0
2	175	24.322849888886	0.08894434555
2	180	24.692676880918	0
2	185	25.449068789389	0
2	190	26.249567745169	0
2	195	27.54401373438	0
2	202	30.268440308823	0
2	205	30.398682349237	0.082574047647
2	210	32.838416161157	0
2	215	36.469969869001	0
2	220	37.000241366656	0
2	225	37.166893247773	0
2	230	38.734128701906	0
2	235	39.566528502944	0
2	240	40.800649810899	0
2	245	41.287175580724	0
2	250	42.421611016252	0
2	255	42.861180128501	0
2	262	43.458111096548	0
2	265	43.588353136962	0.011809428162
2	270	44.282661395359	0
2	275	44.532841651253	0
2	280	44.894975557331	0
2	285	45.202620256816	0
2	292	45.809032288294	0
2	295	45.939274328708	0.098360638711
2	300	46.585047631317	0
2	305	48.374510504952	0
2	310	48.510801757908	0
2	315	48.815414133859	0
2	322	49.249075719543	0
2	325	49.379317759957	0.045094212076
2	330	50.75106573067	0
2	335	50.958963135683	0
2	340	51.389496997398	0
2	345	53.176460941004	0
2	350	54.507597266331	0
2	358	55.490477619509	0
2	361	55.620719659923	0.075699275862
2	366	56.969953504569	0
2	371	60.361071855573	0
2	376	61.647427659548	0
2	381	61.788891493608	0
2	386	62.383385751839	0
2	391	63.094458619324	0
2	396	63.886763377724	0
2	401	64.027518778805	0
2	406	65.507162871858	0
2	413	65.738185872854	0
2	416	65.868427913268	0.093011570768
2	421	66.212739340689	0
2	426	66.61778976829	0
2	431	67.607397085767	0
2	436	68.166100535549	0
2	441	69.098969465816	0
2	446	69.322723621592	0
2	451	69.947691800143	0
2	458	70.234935457759	0
2	461	70.365177498173	0.081350771833
2	468	70.550149978014	0
2	471	70.680392018428	0.063076173638
2	478	71.295875978788	0
2	481	71.426118019202	0.065513527616
2	486	73.10185677816	0
2	491	74.104821310212	0
2	496	75.047165723213	0
2	501	75.341687328289	0
2	506	75.816276476644	0
2	513	76.069391438893	0
2	516	76.199633479307	0.056963888755
2	521	76.399443759549	0
2	526	77.196258680032	0
2	531	80.183604613101	0
2	536	80.50648926812	0
2	541	81.043331292177	0
2	546	81.407507053189	0
2	551	81.828125967364	0
2	556	82.024352028281	0
2	563	83.071179760252	0
2	566	83.201421800666	0.102115626048
2	571	83.529503933982	0
2	576	84.646841560605	0
2	581	86.443174169301	0
2	586	86.897800604669	0
2	591	89.269276927198	0
2	596	89.560384310397	0
2	603	90.154079039778	0
2	606	90.284321080192	0.021452755589
2	611	91.0024197589	0
2	618	91.666296484003	0
2	623	91.796538524417	0.000155814754
2	628	91.926780564831	0.106881251723
2	633	92.057022605245	0.127816065479
2	638	92.187264645659	0.057754887948
2	641	92.317506686073	0.003764822823
2	648	93.442033579014	0
2	651	93.572275619428	0.010750315738
2	656	93.884011023671	0
2	661	94.622524165186	0
2	666	95.970861343372	0
2	671	97.111652192492	0
2	676	97.425102117428	0
2	681	99.310185246335	0
2	686	99.763795489761	0
2	691	101.544706724208	0
2	698	101.818214738769	0
2	701	101.948456779183	0.095193240432
2	707	102.338736523782	0.201994078147
2	716	102.478935096127	0
2	721	102.609177136541	0.128820024325
2	724	102.739419176955	0.157983863122
2	729	102.869661217369	0.252797151958
2	732	102.999903257783	0.019384786108
2	737	103.955846448056	0
2	742	104.60739675694	0
2	747	104.740055487049	0
2	752	105.335756990107	0
2	757	107.469216231569	0
2	762	108.209173767611	0
2	767	108.461651239962	0
2	774	110.693775788596	0
2	777	110.82401782901	0.075295913379
2	782	111.443875564842	0
2	787	113.414607360226	0
2	792	114.380527591801	0
2	797	115.378243482058	0
2	802	115.986798439656	0
2	807	116.787199019906	0
2	812	117.6408568356	0
2	817	118.487927334635	0
2	822	119.838576684276	0
2	827	121.907473080159	0
2	832	122.090382322803	0
2	837	122.373712863011	0
2	844	122.610411572687	0
2	847	122.740653613101	0.014852992068
2	854	122.887977784227	0
2	857	123.018219824641	0.051875413966
2	862	123.871426144809	0
2	867	126.714034735683	0
2	872	128.154691207506	0
2	877	130.987319165867	0
2	882	133.375154175921	0
2	887	134.157128339139	0
2	892	135.230846689868	0
2	897	135.467903060556	0
2	902	135.750785268616	0
2	907	136.369687718337	0
2	912	137.770034295678	0
2	919	138.500788183399	0
2	922	138.631030223813	0.06962171414
2	929	139.324396795692	0
2	934	139.454638836106	0.094425000429
2	937	139.58488087652	0.07182085893
2	942	140.002387845043	0
2	947	141.573631867341	0
2	954	143.47388542627	0
2	957	143.604127466684	0.096173360726
2	962	146.43575520673	0
2	967	146.970941130187	0
2	974	147.766817138911	0
2	977	147.897059179325	0.00516090195
2	984	148.107597265763	0
2	987	148.237839306177	0.060819618717
2	992	148.377593809735	0
2	997	148.649633372919	0
2	1002	151.121434254616	0
2	1007	152.820494863396	0
2	1014	154.129412215367	0
2	1017	154.259654255781	0.06388976562
2	1022	155.134827686566	0
2	1027	156.6414301994	0
2	1032	157.119118631196	0
2	1037	158.086984910495	0
2	1044	159.104826765435	0
2	1047	159.235068805849	0.025045268325
2	1052	160.04137909303	0
2	1058	160.527609228552	0
2	1063	160.685988447977	0
2	1070	161.256404425785	0
2	1075	161.386646466199	0.040873491477
2	1080	161.516888506613	0.006114779036
2	1083	161.647130547027	0.008654809282
2	1088	162.08391836752	0
2	1093	162.417039958571	0
2	1098	162.581818882175	0
2	1103	163.059644575476	0
2	1108	163.48881396005	0
2	1115	164.142543617515	0
2	1118	164.272785657929	0.080581022731
2	1123	164.818152568945	0
2	1128	165.540535595712	0
2	1133	165.826882051929	0
2	1140	166.475702036225	0
2	1143	166.605944076639	0.12886030134
2	1148	167.249044233357	0
2	1153	168.267252325843	0
2	1158	168.808469484307	0
2	1163	169.317035990473	0
2	1170	169.878890214571	0
2	1173	170.009132254985	0.023677510588
2	1178	171.414898291701	0
2	1185	171.875772272672	0
2	1188	172.006014313086	0.039614360865
2	1193	172.517035101095	0
2	1198	173.605316740248	0
2	1203	173.93790258155	0
2	1208	174.140901203691	0
2	1213	176.170386449269	0
2	1218	177.210629505862	0
2	1223	177.477485521351	0
2	1228	179.286559903945	0
2	1233	180.191103608682	0
2	1238	180.655221236178	0
2	1245	181.361855700455	0
2	1248	181.492097740869	0.047198093019
2	1253	182.081968461278	0
2	1258	182.913391434728	0
2	1263	184.351204864089	0
2	1270	185.321476211076	0
2	1273	185.45171825149	0.08844917431
2	1278	187.364898401029	0
2	1285	187.667383213569	0
2	1290	187.797625253983	0.10421710475
2	1293	187.927867294397	0.089989651514
2	1300	188.456878380604	0
2	1303	188.587120421018	0.035342448705
2	1308	189.234668877146	0
2	1313	189.592033584305	0
2	1318	190.422023347828	0
2	1323	190.996436503929	0
2	1328	191.400873746954	0
2	1333	191.784849750225	0
2	1340	192.063104431052	0
2	1343	192.193346471466	0.086122984682
2	1348	192.463033619075	0
2	1353	192.609173698314	0
2	1358	195.002693454337	0
2	1363	195.284242251493	0
2	1370	195.523712415779	0
2	1373	195.653954456193	0.074587415608
2	1378	195.992868325194	0
2	1383	196.627894057157	0
2	1388	196.796943559381	0
2	1395	199.28612436555	0
2	1398	199.416366405964	0.069782983871
2	1403	200.251871790467	0
2	1409	200.681371273477	0
2	1414	201.819305280516	0
2	1419	202.486901643459	0
2	1424	203.191615113707	0
2	1429	203.452721850234	0
2	1434	205.017491519275	0
2	1441	205.550852574852	0
2	1444	205.681094615266	0.036854030186
2	1449	206.53464266682	0
2	1454	208.043678525366	0
2	1461	208.842046464102	0
2	1464	208.972288504516	0.019529790377
2	1469	209.684978282914	0
2	1474	209.897844032219	0
2	1479	211.51211837421	0
2	1484	212.977735442479	0
2	1489	215.1303796909	0
2	1498	216.287267593733	0
2	1501	216.417509634147	0.111702308091
2	1504	216.547751674561	0.212861300371
2	1509	218.067949153054	0
2	1514	218.871768976226	0
2	1521	219.760245031024	0
2	1524	219.890487071438	0.120201794751
2	1529	223.444619976041	0
2	1534	223.651270122488	0
2	1541	224.398914014477	0
2	1544	224.529156054891	0.009215780654
2	1549	224.888361180471	0
2	1554	225.942873139178	0
2	1559	226.374333692367	0
2	1566	226.892857765538	0
2	1569	227.023099805952	0.078143888576
2	1574	227.32104928	0
2	1581	228.59517169026	0
2	1590	228.725413730674	0.021804503632
2	1595	228.855655771088	0.087982765582
2	1598	228.985897811502	0.2112961331
2	1601	229.116139851916	0.268471161726
2	1604	229.24638189233	0.387142979833
2	1609	230.543733542553	0
2	1614	230.703911646868	0
2	1619	235.681812339217	0
2	1624	235.84896776126	0
2	1629	236.565121533211	0
2	1634	236.895179105169	0
2	1639	237.128536743902	0
2	1646	238.139148887391	0
2	1649	238.269390927805	0.041288679275
2	1654	239.459647162376	0
2	1659	239.77969638732	0
2	1664	240.848402818909	0
2	1669	241.560729901191	0
2	1674	242.988727355865	0
2	1679	243.119277693171	0
2	1684	243.452454612557	0
2	1691	243.86998260117	0
2	1696	244.000224641584	0.052646090484
2	1699	244.130466681998	0.111109380722
2	1704	245.719526644311	0
2	1709	246.008021497152	0
2	1714	246.181872664109	0
2	1719	246.939774130313	0
2	1724	247.91336080333	0
2	1729	248.216032372173	0
2	1734	250.130870703699	0
2	1741	250.728792903216	0
2	1746	250.85903494363	0.035107519445
2	1749	250.989276984044	0.117231484851
2	1754	251.168014814165	0
2	1760	251.925094663968	0
2	1767	253.048883962824	0
2	1770	253.179126003238	0.096823970599
2	1775	254.152269237071	0
2	1780	254.398044643158	0
2	1785	254.725704357248	0
2	1792	255.110066240545	0
2	1795	255.240308280959	0.006436688564
2	1800	255.524104313647	0
2	1805	255.824535952925	0
2	1810	257.006862887455	0
2	1815	257.336462466753	0
2	1820	258.110514087011	0
2	1825	258.992820661348	0
2	1830	259.490089763599	0
2	1835	260.478557282499	0
2	1842	261.494211162339	0
2	1845	261.624453202753	0.122237986615
2	1850	262.091423696768	0
2	1855	263.193893801724	0
2	1860	263.799963756457	0
2	1867	264.169829303111	0
2	1870	264.300071343525	0.119005254281
2	1875	264.527822682274	0
2	1880	265.075768724478	0
2	1885	265.413876938375	0
2	1890	265.769435515021	0
2	1895	267.41882543009	0
2	1902	268.138707955106	0
2	1905	268.26894999552	0.09300493937
2	1910	268.89618465284	0
2	1915	269.745001494354	0
2	1920	270.799795349352	0
2	1925	272.307370257001	0
2	1930	272.586539196683	0
2	1935	272.737954959858	0
2	1940	273.864279647038	0
2	1945	274.454422183235	0
2	1950	274.929975105508	0
2	1957	275.427349067937	0
2	1960	275.557591108351	0.117390412491
2	1965	275.738044108319	0
2	1972	275.930123185732	0
2	1975	276.060365226146	0.030820328457
2	1980	277.402141918226	0
[...]
7	5054	706.698688726595	0
7	5059	707.315812705897	0
7	5064	709.416686112144	0
7	5069	710.995208050253	0
7	5074	711.205205191549	0
7	5079	711.617833212058	0
7	5084	714.010643676942	0
7	5089	714.172501461628	0
7	5094	714.539777214987	0
7	5099	714.807954499709	0
7	5106	714.963946955136	0
7	5109	715.09418899555	0
7	5114	715.47693581247	0
7	5119	715.707863455658	0
7	5124	716.434464576708	0
7	5129	719.847328900146	0
7	5134	722.656366723872	0
7	5139	723.24670707821	0
7	5144	724.337804816815	0
7	5149	724.974351171249	0
7	5156	725.192799787764	0
7	5159	725.323041828178	0
7	5166	725.683108658281	0
7	5169	725.813350698695	0
7	5174	726.577719962567	0
7	5181	727.781635297946	0
7	5184	727.91187733836	0
7	5191	729.364092136021	0
7	5194	729.494334176435	0
7	5199	729.885042151629	0
7	5204	731.11174040938	0
7	5209	731.50664660621	0
7	5214	732.492050290586	0
7	5219	732.652493348206	0
7	5224	732.945688229537	0
7	5229	733.16293728902	0
7	5234	734.357014558018	0
7	5239	736.954256407149	0
7	5244	737.922088926565	0
7	5249	738.472685491161	0
7	5254	738.789487402419	0
7	5259	738.944064303521	0
7	5264	739.443009813714	0
7	5270	740.033050495341	0
7	5277	741.089941623505	0
7	5280	741.220183663919	0
7	5287	742.022683308046	0
7	5290	742.15292534846	0
7	5295	742.656529331728	0
7	5300	743.928064893355	0
7	5305	744.345033827604	0
7	5310	745.215042865563	0
7	5315	745.437482938652	0
7	5320	746.187026708879	0
7	5325	747.245788565856	0
7	5330	747.793308048472	0
7	5335	748.502327169491	0
7	5340	748.672019883627	0
7	5345	749.030409799487	0
7	5350	749.543985561641	0
7	5355	749.795760378741	0
7	5360	749.978184936094	0
7	5365	750.160829904238	0
7	5370	750.373280634919	0
7	5375	750.681914034878	0
7	5380	751.583585548463	0
7	5385	752.130173976305	0
7	5390	752.382730991313	0
7	5395	753.579124292623	0
7	5400	754.032472255874	0
7	5405	754.706387416751	0
7	5410	755.074959569006	0
7	5415	756.233743850129	0
7	5420	756.393405588853	0
7	5425	756.53164521784	0
7	5432	756.81460449271	0
7	5435	756.944846533124	0
7	5440	760.176916910553	0
7	5445	761.494450140171	0
7	5450	761.845533444527	0
7	5455	764.744880439945	0
7	5460	764.930924656526	0
7	5465	766.530309332242	0
7	5470	767.136950969478	0
7	5475	767.349917556658	0
7	5482	767.875764060768	0
7	5485	768.006006101182	0
7	5492	768.152049744941	0
7	5495	768.282291785355	0
7	5500	769.617890251853	0
7	5505	771.642660115146	0
7	5510	772.598552864346	0
7	5515	775.398398049611	0
7	5520	775.583615853575	0
7	5525	780.048704189225	0
7	5530	780.461702146603	0
7	5535	780.990866215217	0
7	5540	781.726068189206	0
7	5547	782.225040759566	0
7	5550	782.35528279998	0
7	5555	782.697660005267	0
7	5560	782.915966082356	0
7	5565	783.696344783337	0
7	5570	784.670950184333	0
7	5575	785.032179255088	0
7	5580	785.554486751629	0
7	5585	788.728697521508	0
7	5592	789.20604044083	0
7	5595	789.336282481244	0
7	5600	790.696768404959	0
7	5605	790.904816703059	0
7	5610	791.333999986456	0
7	5615	791.790862183909	0
7	5621	792.965385352173	0
7	5626	793.293995497708	0
7	5631	794.934332547261	0
7	5636	795.727886340768	0
7	5641	797.4718927939	0
7	5646	798.268429548422	0
7	5651	800.330128267238	0
7	5656	801.819481390642	0
7	5661	802.378617188319	0
7	5666	802.768915011117	0
7	5671	802.955302819196	0
7	5676	803.11092860736	0
7	5681	804.927156024142	0
7	5686	805.08336250431	0
7	5691	807.077323664646	0
7	5698	808.037825501683	0
7	5701	808.168067542097	0
7	5708	809.303995803049	0
7	5711	809.434237843463	0
7	5716	810.92472503113	0
7	5721	811.19572585135	0
7	5726	813.081499690746	0
7	5731	814.278242833654	0
7	5736	816.724096661028	0
7	5741	818.403026850214	0
7	5746	819.638309220785	0
7	5751	819.925844483407	0
7	5756	820.860657980155	0
7	5761	823.133570602956	0
7	5766	823.331078345115	0
7	5771	824.161505142713	0
7	5776	825.519838891377	0
7	5781	825.897760555846	0
7	5786	827.127021929944	0
7	5791	828.521224164751	0
7	5796	828.839913869582	0
7	5801	829.074216430359	0
7	5806	829.344608529903	0
7	5811	830.057059178168	0
7	5816	832.142863651618	0
7	5821	833.539695696142	0
7	5828	834.312952424382	0
7	5831	834.443194464796	0
7	5838	834.576901151051	0
7	5841	834.707143191465	0
7	5846	835.860944498677	0
7	5851	836.174775394586	0
7	5856	836.516661363598	0
7	5861	836.722542884347	0
7	5866	837.033545725975	0
7	5871	838.397305413105	0
7	5876	840.646775646219	0
7	5881	841.196144842663	0
7	5886	842.241225229214	0
7	5893	842.67683371167	0
7	5896	842.807075752084	0
7	5901	843.44050926446	0
7	5908	844.20647846206	0
7	5911	844.336720502474	0
7	5916	844.937199069373	0
7	5921	845.117856577136	0
7	5926	845.845717335103	0
7	5931	846.241320289188	0
7	5938	846.683850598732	0
7	5941	846.814092639146	0
7	5946	848.200920826382	0
7	5953	848.515556057669	0
7	5956	848.645798098083	0
7	5961	849.399948549331	0
7	5966	851.418311870408	0
7	5972	852.538143006559	0
7	5977	854.661737440734	0
7	5982	855.010166151284	0
7	5987	856.477275063609	0
7	5992	856.701470704582	0
7	5997	857.129755655379	0
7	6002	857.793025435737	0
7	6007	858.804744404915	0
7	6012	860.039776615815	0
7	6017	860.383088228417	0
7	6024	860.729356357808	0
7	6027	860.859598398222	0
7	6032	863.501934289408	0
7	6037	863.833550602699	0
7	6042	864.361288514756	0
7	6047	865.131965943434	0
7	6052	865.357762868223	0
7	6057	866.777772608043	0
7	6062	867.447230540192	0
7	6067	867.859268186771	0
7	6072	868.656173467873	0
7	6079	868.79780653467	0
7	6082	868.928048575084	0
7	6087	869.491856350238	0
7	6092	870.014500087343	0
7	6097	870.790323000198	0
7	6102	870.956875598346	0
7	6107	871.663340096244	0
7	6112	875.589144995498	0
7	6117	876.427129249216	0
7	6122	878.122702085009	0
7	6127	878.882428435319	0
7	6132	879.054195475479	0
7	6139	879.757170521877	0
7	6142	879.887412562291	0
7	6147	880.438901382014	0
7	6152	882.630032699688	0
7	6159	883.373256804589	0
7	6164	883.503498845003	0
7	6167	883.633740885417	0
7	6172	883.932471129898	0
7	6177	884.138089897024	0
7	6184	884.351247384595	0
7	6189	884.481489425009	0
7	6192	884.611731465423	0
7	6197	885.094864530549	0
7	6202	885.72832697239	0
7	6209	886.406774168506	0
7	6214	886.53701620892	0
7	6217	886.667258249334	0
7	6222	889.069392372452	0
7	6227	890.59721876794	0
7	6232	891.415813544161	0
7	6237	894.532692099882	0
7	6242	896.664242106674	0
7	6247	897.761829370483	0
7	6254	898.139693061749	0
7	6257	898.269935102163	0
7	6262	898.796802027894	0
7	6267	898.958540860776	0
7	6272	899.299748982651	0
7	6277	899.938208548291	0
7	6282	900.412095747825	0
7	6287	900.66280922058	0
7	6294	902.334209968451	0
7	6297	902.464452008865	0
7	6302	903.741487321825	0
7	6307	904.001365950149	0
7	6312	904.517852896736	0
7	6317	904.864165166677	0
7	6323	905.254444911276	0
7	6328	905.536409206313	0
7	6333	906.242283338768	0
7	6338	907.47338308678	0
7	6343	907.77531770841	0
7	6348	908.077197509511	0
7	6355	908.27990190516	0
7	6358	908.410143945574	0
7	6363	909.384361356663	0
7	6368	909.660752937481	0
7	6373	910.523082373384	0
7	6378	910.952180481117	0
7	6385	911.756826263146	0
7	6388	911.88706830356	0
7	6393	912.503326349632	0
7	6398	912.842135924679	0
7	6405	913.620816637878	0
7	6408	913.751058678292	0
7	6413	913.885537170192	0
7	6418	914.114433781665	0
7	6423	914.759635828684	0
7	6428	918.138023053348	0
7	6433	918.315105281302	0
7	6438	921.046396446006	0
7	6445	921.345350049012	0
7	6448	921.475592089426	0
7	6453	922.750767436804	0
7	6458	923.860980371384	0
7	6463	924.53184543948	0
7	6470	924.794981362738	0
7	6473	924.925223403152	0
7	6480	925.210891390342	0
7	6483	925.341133430756	0
7	6488	925.555488448575	0
7	6495	926.93846614112	0
7	6498	927.068708181534	0
7	6503	927.498515879474	0
7	6508	929.470833239076	0
7	6515	929.632397230574	0
7	6518	929.762639270988	0
7	6523	930.302625994867	0
7	6528	930.442853993267	0
7	6533	931.016434827202	0
7	6538	931.900894665047	0
7	6543	932.114012876296	0
7	6550	932.677386653631	0
7	6553	932.807628694045	0
7	6558	934.086949681695	0
7	6563	934.617217953691	0
7	6568	935.139499999542	0
7	6573	935.421119094562	0
7	6578	935.576995974435	0
7	6583	935.765233189031	0
7	6588	936.173062788779	0
7	6593	936.495390233658	0
7	6598	937.459315357821	0
7	6603	939.10400299307	0
7	6608	939.970838908236	0
7	6613	941.167800048917	0
7	6618	941.558855363889	0
7	6623	942.317147417147	0
7	6628	942.802629656598	0
7	6635	942.937737339155	0
7	6638	943.067979379569	0
7	6643	943.591312397772	0
7	6648	947.1763994829	0
7	6657	947.348054916374	0
7	6660	947.478296956788	0
7	6663	947.608538997202	0
7	6670	948.034030166015	0
7	6674	948.424309910614	0
7	6679	948.617706129346	0
7	6684	948.844941997753	0
7	6689	949.705714476064	0
7	6694	950.210056307458	0
7	6701	951.277378651809	0
7	6704	951.407620692223	0
7	6709	952.170951333783	0
7	6714	953.294222052069	0
7	6719	954.467149259888	0
7	6724	955.296517354379	0
7	6729	956.078077581021	0
7	6734	956.968786313699	0
7	6739	957.240449582277	0
7	6744	957.80906128012	0
7	6749	958.532688232693	0
7	6754	958.700900763669	0
7	6759	959.598762290805	0
7	6766	960.877627703009	0
7	6769	961.007869743423	0
7	6774	961.328586125315	0
7	6779	962.66578661009	0
7	6784	962.9879889865	0
7	6789	963.951106174233	0
7	6794	964.208032479085	0
7	6803	966.007105498326	0
7	6806	966.13734753874	0
7	6809	966.267589579154	0
7	6814	966.959677380431	0
7	6819	967.219355680023	0
7	6826	967.394771838987	0
7	6829	967.525013879401	0
7	6834	968.344396855198	0
7	6841	968.623217466163	0
7	6846	968.753459506577	0
7	6849	968.883701546991	0
7	6854	969.06087555317	0
7	6859	969.761409699841	0
7	6864	970.137621132629	0
7	6869	970.404571606487	0
7	6874	970.98878717421	0
7	6879	972.162521774235	0
7	6884	973.287112761299	0
7	6889	974.794920578027	0
7	6894	977.780361630488	0
7	6899	978.63499051689	0
7	6904	978.942165312669	0
7	6909	979.573563010299	0
7	6914	979.807994255847	0
7	6919	980.195757066132	0
7	6924	982.261067662342	0
7	6929	982.612701447231	0
7	6934	983.184962864891	0
7	6939	983.881583009241	0
7	6946	984.651282634995	0
7	6949	984.781524675409	0
7	6954	985.470306794461	0
7	6959	985.971465456235	0
7	6964	986.753349665465	0
7	6969	987.297419547997	0
7	6974	987.695312450563	0
7	6981	988.033244180409	0
7	6986	988.163486220823	0
7	6989	988.293728261237	0
7	6994	989.231274427527	0
7	6999	989.594329281691	0
7	7004	991.528826289391	0
7	7011	992.023248800478	0
7	7014	992.153490840892	0
7	7019	992.471938482626	0
7	7025	994.021762263229	0
7	7030	998.59037702439	0
7	7035	998.958523746235	0
7	7040	999.192406096622	0
8	31	3.941702253612	0.127874998124
8	41	4.800810232376	0.019172865922
8	46	4.93105227279	0.009887539457
8	91	12.276301390298	0.105461097142
8	116	16.9146252342	0.089709293112
8	126	18.250580374213	0.073281992825
8	131	18.380822414627	0.117518061432
8	171	24.192607848472	0.08894434555
8	201	30.268440308823	0.082574047647
8	261	43.458111096548	0.011809428162
8	291	45.809032288294	0.098360638711
8	321	49.249075719543	0.045094212076
8	357	55.490477619509	0.075699275862
8	412	65.738185872854	0.093011570768
8	457	70.234935457759	0.081350771833
8	467	70.550149978014	0.063076173638
8	477	71.295875978788	0.065513527616
8	512	76.069391438893	0.056963888755
8	562	83.071179760252	0.102115626048
8	602	90.154079039778	0.021452755589
8	617	91.666296484003	0.000155814754
8	622	91.796538524417	0.106881251723
8	627	91.926780564831	0.127816065479
8	632	92.057022605245	0.057754887948
8	637	92.187264645659	0.003764822823
8	647	93.442033579014	0.010750315738
8	697	101.818214738769	0.095193240432
8	704	102.208494483368	0.201994078147
8	715	102.478935096127	0.128820024325
8	720	102.609177136541	0.157983863122
8	723	102.739419176955	0.252797151958
8	728	102.869661217369	0.019384786108
8	773	110.693775788596	0.075295913379
8	843	122.610411572687	0.014852992068
8	853	122.887977784227	0.051875413966
8	918	138.500788183399	0.06962171414
8	928	139.324396795692	0.094425000429
8	933	139.454638836106	0.07182085893
8	953	143.47388542627	0.096173360726
8	973	147.766817138911	0.00516090195
8	983	148.107597265763	0.060819618717
8	1013	154.129412215367	0.06388976562
8	1043	159.104826765435	0.025045268325
8	1069	161.256404425785	0.040873491477
8	1074	161.386646466199	0.006114779036
8	1079	161.516888506613	0.008654809282
8	1114	164.142543617515	0.080581022731
8	1139	166.475702036225	0.12886030134
8	1169	169.878890214571	0.023677510588
8	1184	171.875772272672	0.039614360865
8	1244	181.361855700455	0.047198093019
8	1269	185.321476211076	0.08844917431
8	1284	187.667383213569	0.10421710475
8	1289	187.797625253983	0.089989651514
8	1299	188.456878380604	0.035342448705
8	1339	192.063104431052	0.086122984682
8	1369	195.523712415779	0.074587415608
8	1394	199.28612436555	0.069782983871
8	1440	205.550852574852	0.036854030186
8	1460	208.842046464102	0.019529790377
8	1497	216.287267593733	0.111702308091
8	1500	216.417509634147	0.212861300371
8	1520	219.760245031024	0.120201794751
8	1540	224.398914014477	0.009215780654
8	1565	226.892857765538	0.078143888576
8	1580	228.59517169026	0.021804503632
8	1589	228.725413730674	0.087982765582
8	1594	228.855655771088	0.2112961331
8	1597	228.985897811502	0.268471161726
8	1600	229.116139851916	0.387142979833
8	1645	238.139148887391	0.041288679275
8	1690	243.86998260117	0.052646090484
8	1695	244.000224641584	0.111109380722
8	1740	250.728792903216	0.035107519445
8	1745	250.85903494363	0.117231484851
8	1766	253.048883962824	0.096823970599
8	1791	255.110066240545	0.006436688564
8	1841	261.494211162339	0.122237986615
8	1866	264.169829303111	0.119005254281
8	1901	268.138707955106	0.09300493937
8	1956	275.427349067937	0.117390412491
8	1971	275.930123185732	0.030820328457
8	2011	286.879220905807	0.047434131198
8	2021	287.761692527457	0.026608573355
8	2031	288.431026057837	0.037949090397
8	2041	288.783825986644	0.004150721287
8	2066	293.197937896767	0.024056118801
8	2108	297.542762420437	0.376671809309
8	2117	298.095761552307	0.037613003437
8	2132	299.822796108398	0.10013892392
8	2147	300.643806278194	0.02190599534
8	2197	310.825406448938	0.110690144468
8	2212	311.824372112034	0.034659464222
8	2307	329.794735641973	0.052144892711
8	2392	344.777807989074	0.077273010568
8	2490	359.262777232886	0.025405218997
8	2493	359.3930192733	0.137057970438
8	2543	368.866434705151	0.057856386672
8	2578	372.830839499931	0.089226302553
8	2583	372.961081540345	0.096867521517
8	2593	374.412760927603	0.016793908115
8	2623	377.348004603077	0.096648483951
8	2688	388.20050757517	0.096686549555
8	2733	393.950125976852	0.060548209045
8	2740	394.080368017266	0.08490962393
8	2743	394.21061005768	0.156276786856
8	2778	397.013598073528	0.082393168631
8	2798	399.213382437719	0.010368622179
8	2810	400.468413715541	0.089660790992
8	2814	400.598655755955	0.085690134989
8	2844	404.031280392805	0.006208641686
8	2849	404.161522433219	0.071780276333
8	2859	404.676352933371	0.089167266622
8	2864	404.806594973785	0.075342354277
8	2874	405.11831389901	0.09898988822
8	2974	420.366762473648	0.005727275418
8	2979	420.497004514062	0.054695002582
8	2989	420.981657750736	0.085886598628
8	2999	421.353258118905	0.025576900816
8	3039	429.435242743923	0.004489970544
8	3109	443.315018472779	0.042296457913
8	3126	444.036777002411	0.112543227923
8	3129	444.167019042825	0.171783781638
8	3134	444.297261083239	0.032788556489
8	3144	444.592009087519	0.076577927369
8	3187	452.51842837147	0.043180483263
8	3190	452.648670411884	0.145440781452
8	3220	455.061530972459	0.100817943753
8	3225	455.191773012873	0.011246245817
8	3285	462.88166874124	0.046920956186
8	3320	466.771383524902	0.128028559226
8	3332	467.246470861562	0.064938293487
8	3335	467.376712901976	0.132572069388
8	3355	470.1088114063	0.024827755833
8	3360	470.239053446714	0.121676908471
8	3450	486.505044690228	0.018151821732
8	3460	488.656512828525	0.024164390146
8	3470	489.189429013737	0.002983978566
8	3495	491.177787994765	0.032621647743
8	3500	491.308030035179	0.09905511801
8	3521	496.060695519005	0.12727481924
8	3541	499.102647758676	0.108399522681
8	3561	502.103817139314	0.068750149075
8	3566	502.234059179728	0.049912519886
8	3616	512.311313848738	0.101757766047
8	3651	516.19956078095	0.080261065868
8	3706	523.936182086913	0.055626847301
8	3766	534.496423969648	0.038432886029
8	3776	534.810807156721	0.097934072401
8	3821	539.318803912658	0.063824036031
8	3826	539.449045953072	0.0541528052
8	3863	544.17440448341	0.072636998835
8	3892	548.290254067957	0.118359516221
8	3982	561.923643309758	0.055274802034
8	3992	563.425258466498	0.020753563389
8	3997	563.555500506912	0.008291252596
8	4012	565.693499826434	0.014857320833
8	4037	569.083590006438	0.121972211984
8	4127	581.912213760831	0.079396730646
8	4162	584.789549892852	0.087115064196
8	4233	597.789356977149	0.118960877756
8	4258	602.493112685728	0.125968162225
8	4292	605.407581358115	0.124063968101
8	4295	605.537823398529	0.244095822298
8	4298	605.668065438943	0.285922652526
8	4303	605.798307479357	0.064248150785
8	4323	607.85442078445	0.085911934579
8	4348	609.301192497841	0.016562798412
8	4353	609.431434538255	0.021441579707
8	4383	613.602608936939	0.00170582207
8	4413	616.352907263896	0.015863615931
8	4523	629.714521238598	0.112274455852
8	4579	638.043926049847	0.026550598399
8	4599	640.669150530846	0.031525840871
8	4604	640.79939257126	0.066119196409
8	4634	643.18395661984	0.105026556096
8	4664	646.643669099364	0.026426495267
8	4709	654.327662094087	0.074777931109
8	4731	657.02586992659	0.042096640961
8	4734	657.156111967004	0.158054756154
8	4739	657.286354007418	0.093416401095
8	4754	658.234689366829	0.129764733153
8	4784	661.502385947796	0.033133302793
8	4794	662.264721248018	0.108716448958
8	4806	664.287727078657	0.126354768923
8	4809	664.417969119071	0.254539893613
8	4819	664.936357640715	0.065071819174
8	4839	665.981620514846	0.011355058133
8	4854	669.398540292277	0.048171521901
8	4864	669.997634808521	0.014931672752
8	4874	671.200223126086	0.043887578504
8	4879	671.3304651665	0.074799780755
8	4985	696.545618549641	0.053085536247
8	5000	700.299014086268	0.055970287401
8	5025	704.443445600788	0.107770440083
8	5050	706.568446686181	0.047146356661
8	5105	714.963946955136	0.125532450373
8	5155	725.192799787764	0.057484348029
8	5165	725.683108658281	0.00228860203
8	5180	727.781635297946	0.033490736339
8	5190	729.364092136021	0.046842276265
8	5276	741.089941623505	0.058440696242
8	5286	742.022683308046	0.068667937884
8	5431	756.81460449271	0.070648749772
8	5481	767.875764060768	0.122753068461
8	5491	768.152049744941	0.098491947651
8	5546	782.225040759566	0.087223715749
8	5591	789.20604044083	0.102608664958
8	5697	808.037825501683	0.009811178504
8	5707	809.303995803049	0.081243269921
8	5827	834.312952424382	0.049140622781
8	5837	834.576901151051	0.028528193631
8	5892	842.67683371167	0.106199204554
8	5907	844.20647846206	0.095962876928
8	5937	846.683850598732	0.011783307008
8	5952	848.515556057669	0.043530221812
8	6023	860.729356357808	0.126849073267
8	6078	868.79780653467	0.120721040761
8	6138	879.757170521877	0.042140631473
8	6158	883.373256804589	0.035385514555
8	6163	883.503498845003	0.078733050473
8	6183	884.351247384595	0.036003325772
8	6188	884.481489425009	0.024506857373
8	6208	886.406774168506	0.106466723181
8	6213	886.53701620892	0.122925473535
8	6253	898.139693061749	0.121482033765
8	6293	902.334209968451	0.022236925361
8	6320	905.124202870862	0.075270357068
8	6354	908.27990190516	0.118446007834
8	6384	911.756826263146	0.103354510334
8	6404	913.620816637878	0.110376036122
8	6444	921.345350049012	0.106710437873
8	6469	924.794981362738	0.028278535044
8	6479	925.210891390342	0.037166438393
8	6494	926.93846614112	0.02938526364
8	6514	929.632397230574	0.031356114504
8	6549	932.677386653631	0.104361821661
8	6634	942.937737339155	0.111986149381
8	6656	947.348054916374	0.035789875966
8	6659	947.478296956788	0.143806436244
8	6671	948.2940678702	0.267624892547
8	6700	951.277378651809	0.037455758841
8	6765	960.877627703009	0.043475703307
8	6802	966.007105498326	0.096854089259
8	6805	966.13734753874	0.181399276259
8	6825	967.394771838987	0.120654093845
8	6840	968.623217466163	0.065493708224
8	6845	968.753459506577	0.050387241372
8	6945	984.651282634995	0.038739299487
8	6980	988.033244180409	0.024379201352
8	6985	988.163486220823	0.117179691432
8	7010	992.023248800478	0.101405959028

