version 2
run General-77-20240201-11:04:16-40057
attr configname General
attr datetime 20240201-11:04:16
attr experiment General
attr inifile main.ini
attr iterationvars "$0=2.0, $1=3.5, $2=30"
attr iterationvarsf 2.0,3.5,30-
attr measurement "$0=2.0, $1=3.5, $2=30"
attr network Rete
attr processid 40057
attr repetition 17
attr replication #17
attr resultdir results
attr runnumber 77
attr seedset 77
param Rete.lambda 2.0
param Rete.a 0.3s
param Rete.b 3.5s
param Rete.c 0.1s
param Rete.d 0.3s
param Rete.mu 3.0
param Rete.source2.interArrivalTime exponential(1s/lambda)
param Rete.source2.jobServiceTime exponential(1s/mu)
param Rete.source2.deadline uniform(a,b)
param Rete.server2.j 30
param Rete.server2.V uniform(c,d)

vector 0 Rete.passiveQueue queueLength:vector ETV
attr interpolationmode sample-hold
attr title "queue length, vector"
vector 1 Rete.sink lifeTime:vector ETV
attr interpolationmode none
attr title "lifetime of arrived jobs, vector"
attr unit s
vector 2 Rete.sink totalQueueingTime:vector ETV
attr interpolationmode none
attr title "the total time spent in queues by arrived jobs, vector"
attr unit s
vector 3 Rete.sink queuesVisited:vector ETV
attr interpolationmode none
attr title "the total number of queues visited by arrived jobs, vector"
vector 4 Rete.sink totalServiceTime:vector ETV
attr interpolationmode none
attr title "the total time spent  by arrived jobs, vector"
attr unit s
vector 5 Rete.sink totalDelayTime:vector ETV
attr interpolationmode none
attr title "the total time spent in delay nodes by arrived jobs, vector"
attr unit s
vector 6 Rete.sink delaysVisited:vector ETV
attr interpolationmode none
attr title "the total number of delays visited by arrived jobs, vector"
vector 7 Rete.sink generation:vector ETV
attr interpolationmode none
attr title "the generation of the arrived jobs, vector"
vector 8 Rete.passiveQueue queueingTime:vector ETV
attr interpolationmode none
attr title "queueing time at dequeue, vector"
attr unit s
0	0	0	0
0	10	1.978398319457	1
0	12	2.053411415879	2
0	13	2.300543507332	1
0	15	2.300543507332	0
0	21	2.924357289611	1
0	23	3.132987819721	2
0	24	3.22126216763	1
0	26	3.22126216763	0
0	37	5.20498357586	1
0	38	5.350198615637	0
0	55	7.022170520139	1
0	56	7.227386956765	0
0	73	9.029351475734	1
0	74	9.116065967704	0
0	86	10.041499896604	1
0	87	10.275806215636	0
0	109	13.555476499277	1
0	110	13.722467859224	0
0	117	14.359403415118	1
0	118	14.537033757579	0
0	130	16.713710267474	1
0	132	16.988317181461	2
0	133	17.024840467199	1
0	135	17.024840467199	0
0	143	17.656063632453	1
0	145	17.847398249438	2
0	146	17.969141167297	1
0	148	17.969141167297	0
0	159	19.819392759584	1
0	160	19.860956697766	0
0	169	21.496979198824	1
0	170	21.742913100361	0
0	177	23.438893851323	1
0	178	23.75616459922	0
0	185	24.156386574339	1
0	186	24.325984780437	0
0	193	24.495051322436	1
0	194	24.803073525225	0
0	212	26.967795125079	1
0	214	27.00580547245	2
0	215	27.277436862683	1
0	217	27.277436862683	0
0	223	27.493087235944	1
0	224	27.631131308524	0
0	236	29.150464601815	1
0	237	29.410633675864	0
0	254	31.541503151874	1
0	255	31.591234616484	0
0	259	31.753218764326	1
0	261	31.771582558511	2
0	263	31.822761962751	3
0	264	31.933824221835	2
0	266	31.933824221835	1
0	267	31.933824221835	0
0	278	33.208131599736	1
0	280	33.212515967696	2
0	282	33.305069818002	3
0	283	33.391105467938	2
0	285	33.391105467938	1
0	286	33.391105467938	0
0	297	34.24801835643	1
0	298	34.273907307492	0
0	302	34.304905753424	1
0	304	34.457864717926	2
0	305	34.616496912843	1
0	307	34.616496912843	0
0	318	35.262398559826	1
0	319	35.361349252969	0
0	326	36.11705612416	1
0	327	36.164751082382	0
0	341	39.623762622347	1
0	342	39.747864847976	0
0	354	41.086784788146	1
0	356	41.157079968071	2
0	357	41.242220314003	1
0	359	41.242220314003	0
0	365	42.486154322186	1
0	366	42.625402867349	0
0	373	43.463589465931	1
0	374	43.593303686743	0
0	386	44.198959436401	1
0	388	44.251593851512	2
0	390	44.320909254764	3
0	391	44.356391563188	2
0	393	44.356391563188	1
0	394	44.356391563188	0
0	397	44.590033541583	1
0	398	44.698981168539	0
0	405	45.015062590468	1
0	406	45.206862110468	0
0	418	47.587669477521	1
0	421	47.872258161937	0
0	427	48.233915493085	1
0	429	48.24645074319	2
0	430	48.291239417869	1
0	433	48.63382902322	0
0	440	49.621863771796	1
0	441	49.834061601647	0
0	453	52.111617283414	1
0	455	52.254345206354	2
0	456	52.307173720166	1
0	458	52.307173720166	0
0	471	53.683879943226	1
0	472	54.000835319166	0
0	479	54.1141365755	1
0	481	54.244647992032	2
0	482	54.384361287529	1
0	484	54.384361287529	0
0	500	56.546179597991	1
0	501	56.547848201308	0
0	505	56.744109247451	1
0	506	56.890437806659	0
0	513	57.211049520973	1
0	515	57.336149361521	2
0	516	57.47542071949	1
0	518	57.47542071949	0
0	534	59.337274674311	1
0	535	59.667882274675	0
0	542	59.918531834682	1
0	543	60.255829284958	0
0	550	63.302768253873	1
0	552	63.495199406066	2
0	553	63.558544902342	1
0	555	63.558544902342	0
0	561	64.30069429787	1
0	563	64.317998930799	2
0	564	64.341257373679	1
0	567	64.68384697903	0
0	574	65.640259035721	1
0	575	65.671636126295	0
0	584	66.395902162427	1
0	585	66.491625936868	0
0	602	67.952686032558	1
0	603	67.954423176029	0
0	607	68.012260159449	1
0	609	68.287132442318	2
0	610	68.29701278138	1
0	612	68.29701278138	0
0	620	69.445065366635	1
0	624	69.569893610076	2
0	625	69.648231617262	1
0	626	69.648231617262	0
0	637	70.550257258024	1
0	638	70.752950564083	0
0	650	72.488031090765	1
0	652	72.61314344681	2
0	653	72.668386328363	1
0	655	72.668386328363	0
0	663	73.993139370449	1
0	664	74.129632194803	0
0	671	74.382783969487	1
0	672	74.608460809294	0
0	679	76.157764392012	1
0	680	76.213480634568	0
0	689	77.004837156283	1
0	690	77.272345733467	0
0	697	77.515238525941	1
0	699	77.521235115378	2
0	700	77.675879613932	1
0	702	77.675879613932	0
0	708	78.456297511014	1
0	709	78.768097915089	0
0	721	79.760028652172	1
0	723	80.019320634655	2
0	724	80.020183174308	1
0	726	80.020183174308	0
0	729	80.070155668437	1
0	731	80.097464605627	2
0	732	80.362772779659	1
0	734	80.362772779659	0
0	740	82.023886707498	1
0	742	82.105405417011	2
0	743	82.216167591269	1
0	745	82.216167591269	0
0	771	88.713760528749	1
0	773	88.826765152454	2
0	774	88.861125780351	1
0	776	88.861125780351	0
0	779	88.907861058873	1
0	781	88.960741803302	2
0	782	89.203715385702	1
0	784	89.203715385702	0
0	795	90.218383484046	1
0	796	90.380925037204	0
0	844	96.733320213088	1
0	845	96.991828876991	0
0	857	99.010410724207	1
0	858	99.165669399311	0
0	875	101.288195345815	1
0	876	101.510607853074	0
0	883	102.603375690279	1
0	884	102.775884702015	0
0	891	103.465579020107	1
0	892	103.64844959809	0
0	899	104.225084003494	1
0	901	104.225644069392	2
0	903	104.23293422539	3
0	904	104.42483109544	2
0	906	104.42483109544	1
0	907	104.42483109544	0
0	933	107.546371679223	1
0	934	107.73898907553	0
0	951	109.940571174379	1
0	952	110.005136081713	0
0	959	111.563762048545	1
0	961	111.741963795878	2
0	963	111.771060015791	3
0	964	111.818942228439	2
0	966	111.818942228439	1
0	967	111.818942228439	0
0	970	111.849713641966	1
0	972	112.12450309789	2
0	973	112.16153183379	1
0	975	112.16153183379	0
0	988	114.030459575713	1
0	989	114.200870323923	0
0	996	114.514113645456	1
0	997	114.697091912931	0
0	1004	115.199262509389	1
0	1005	115.459856473089	0
0	1017	118.252512370053	1
0	1018	118.293737237262	0
0	1022	118.391750067257	1
0	1023	118.636326842613	0
0	1032	119.072764498789	1
0	1033	119.153636503628	0
0	1049	122.010870562932	1
0	1051	122.024976723692	2
0	1053	122.180075437171	3
0	1054	122.25509393018	2
0	1056	122.25509393018	1
0	1057	122.25509393018	0
0	1068	123.083826482612	1
0	1070	123.1198532116	2
0	1071	123.384972856774	1
0	1073	123.384972856774	0
0	1079	123.831888659707	1
0	1080	123.879554413306	0
0	1084	124.006588372017	1
0	1085	124.222144018657	0
0	1102	125.493621835058	1
0	1103	125.784196289464	0
0	1110	126.116293531674	1
0	1111	126.445290216613	0
0	1123	127.618315781475	1
0	1124	127.671996820174	0
0	1138	129.821506582958	1
0	1139	129.926472451485	0
0	1146	130.819750403189	1
0	1147	131.020280724525	0
0	1154	132.163390090621	1
0	1156	132.275660915744	2
0	1157	132.353543656822	1
0	1159	132.353543656822	0
0	1170	134.109855726739	1
0	1172	134.23369973885	2
0	1173	134.271107904278	1
0	1175	134.271107904278	0
0	1183	134.938291857403	1
0	1184	135.210348092099	0
0	1196	135.854676212112	1
0	1197	136.163836328133	0
0	1204	136.488393480787	1
0	1206	136.534866668625	2
0	1207	136.750890284337	1
0	1209	136.750890284337	0
0	1215	138.449779836073	1
0	1216	138.634808700812	0
0	1238	142.038883947083	1
0	1242	142.403578612009	2
0	1243	142.433846175159	1
0	1244	142.433846175159	0
0	1252	143.200365290253	1
0	1253	143.260728050617	0
0	1267	144.847238371434	1
0	1268	145.172258483193	0
0	1275	145.385381737669	1
0	1276	145.630355037443	0
0	1283	146.093121976317	1
0	1284	146.260044468647	0
0	1291	146.509260781303	1
0	1292	146.664406674585	0
0	1299	147.163178962782	1
0	1300	147.309302870634	0
0	1322	154.195635604277	1
0	1323	154.381858929415	0
0	1330	154.550442836138	1
0	1332	154.560951933898	2
0	1333	154.757309590696	1
0	1335	154.757309590696	0
0	1341	154.825999442848	1
0	1342	155.116117175199	0
0	1349	155.393009621116	1
0	1350	155.487121723201	0
0	1362	157.031236224238	1
0	1363	157.17243660216	0
0	1370	158.189425435832	1
0	1372	158.266355868809	2
0	1374	158.36475610647	3
0	1375	158.431018298536	2
0	1377	158.431018298536	1
0	1378	158.431018298536	0
0	1384	158.669948522162	1
0	1385	158.926157873426	0
0	1437	167.008526994338	1
0	1439	167.225649092808	2
0	1442	167.506338432395	1
0	1443	167.506338432395	0
0	1464	171.822929537502	1
0	1465	171.959771341275	0
0	1477	172.828810993166	1
0	1478	173.151204222839	0
0	1495	175.145245167483	1
0	1496	175.437874477217	0
0	1523	179.10436020572	1
0	1524	179.369553632097	0
0	1541	180.84042517963	1
0	1542	180.960247800452	0
0	1549	182.617835782039	1
0	1551	182.786815162057	2
0	1552	182.793178753241	1
0	1554	182.793178753241	0
0	1557	182.908343083762	1
0	1558	183.135768358592	0
0	1565	183.274742912642	1
0	1567	183.406123652114	2
0	1568	183.553169828821	1
0	1570	183.553169828821	0
0	1581	185.271327889255	1
0	1582	185.374065745079	0
0	1589	185.613594580471	1
0	1590	185.754716259113	0
0	1597	186.056339518369	1
0	1598	186.165616617737	0
0	1610	186.945372069644	1
0	1611	187.02646464843	0
0	1618	187.144981638803	1
0	1619	187.405247489691	0
0	1631	190.885255672136	1
0	1632	191.179931741815	0
0	1639	191.347834965875	1
0	1642	191.702364349821	0
0	1648	191.809997280373	1
0	1649	192.075835477394	0
0	1666	196.543309987281	1
0	1667	196.630635879636	0
0	1679	197.978778158819	1
0	1680	198.279716414546	0
0	1692	201.778519534741	1
0	1693	201.998770840885	0
0	1700	202.417017476405	1
0	1701	202.532100406438	0
0	1708	202.939608565635	1
0	1709	203.173010048524	0
0	1716	204.207551742434	1
0	1718	204.344195754441	2
0	1720	204.45108673284	3
0	1721	204.471278272775	2
0	1723	204.471278272775	1
0	1724	204.471278272775	0
0	1732	205.809804929479	1
0	1734	205.947518584571	2
0	1736	205.955176492989	3
0	1737	206.039023392068	2
0	1739	206.039023392068	1
0	1740	206.039023392068	0
0	1776	210.801593299366	1
0	1777	211.028793559238	0
0	1794	212.697206074213	1
0	1795	212.923173690708	0
0	1802	213.475023321407	1
0	1804	213.589398901524	2
0	1806	213.673961606021	3
0	1807	213.784383971401	2
0	1809	213.784383971401	1
0	1810	213.784383971401	0
0	1826	215.245541023639	1
0	1827	215.571692585347	0
0	1834	216.039506803631	1
0	1835	216.214696052542	0
0	1842	216.605545104445	1
0	1844	216.609629821441	2
0	1845	216.815157463941	1
0	1847	216.815157463941	0
0	1859	218.080618171354	1
0	1861	218.136280037966	2
0	1863	218.187126708164	3
0	1864	218.363547815155	2
0	1866	218.363547815155	1
0	1867	218.363547815155	0
0	1878	220.961709162779	1
0	1879	221.209211710893	0
0	1891	223.047652173295	1
0	1892	223.264862821763	0
0	1899	223.584061169334	1
0	1900	223.77464431168	0
0	1932	229.383247054324	1
0	1934	229.454453259743	2
0	1935	229.715521394024	1
0	1937	229.715521394024	0
0	1958	234.216511193589	1
0	1960	234.397121538981	2
0	1961	234.422552095148	1
0	1963	234.422552095148	0
0	1971	235.245163118769	1
0	1973	235.296812303284	2
0	1974	235.370602580943	1
0	1976	235.370602580943	0
0	1982	235.525969874401	1
0	1983	235.74015336827	0
0	2000	236.696414656673	1
0	2002	237.034216872305	2
0	2003	237.038255350102	1
0	2005	237.038255350102	0
0	2013	238.085066026566	1
0	2014	238.199604263087	0
0	2026	239.402044906202	1
0	2027	239.614505417724	0
0	2034	240.054443958019	1
0	2035	240.254132451383	0
0	2058	242.525545172312	1
0	2059	242.704385240516	0
0	2066	243.358922178047	1
0	2067	243.680348651624	0
0	2074	243.876469902881	1
0	2076	243.947397537416	2
0	2077	244.068754961077	1
0	2079	244.068754961077	0
0	2085	244.193390808566	1
0	2086	244.467960893169	0
0	2103	247.064006292673	1
0	2105	247.086673983593	2
0	2106	247.324615762595	1
0	2108	247.324615762595	0
0	2114	247.591704835554	1
0	2115	247.670328496496	0
0	2122	248.222893084646	1
0	2124	248.230751469686	2
0	2125	248.534858397191	1
0	2127	248.534858397191	0
0	2138	250.006813314486	1
0	2140	250.133682332566	2
0	2141	250.149744893624	1
0	2143	250.149744893624	0
0	2151	252.487522759535	1
0	2153	252.76582456281	2
0	2154	252.811396428119	1
0	2156	252.811396428119	0
0	2159	252.900688203859	1
0	2160	253.15398603347	0
0	2167	253.334400667979	1
0	2168	253.537814044916	0
0	2175	254.962906776742	1
0	2176	255.019127672358	0
0	2180	255.050952206082	1
0	2181	255.361717277709	0
0	2203	259.162234801937	1
0	2204	259.267028948317	0
0	2211	259.518568215273	1
0	2212	259.61069669972	0
0	2219	259.887105252433	1
0	2220	260.173596622928	0
0	2227	260.869053850575	1
0	2228	261.046333440481	0
0	2245	262.5858759881	1
0	2246	262.847185451736	0
0	2253	263.631223241849	1
0	2255	263.777506867682	2
0	2256	263.877940993298	1
0	2258	263.877940993298	0
0	2275	266.451932906339	1
0	2276	266.637714756746	0
0	2288	268.164080948015	1
0	2289	268.198198195211	0
0	2293	268.318981081392	1
0	2294	268.540787800562	0
0	2306	270.01844286663	1
0	2307	270.139860346672	0
0	2319	271.408963735903	1
0	2320	271.711511948437	0
0	2332	273.099661268705	1
0	2333	273.255837406389	0
0	2350	274.591858419885	1
0	2352	274.60848257674	2
0	2354	274.63014067115	3
0	2355	274.785923056245	2
0	2357	274.785923056245	1
0	2358	274.785923056245	0
0	2369	276.206498921859	1
0	2370	276.313107599302	0
0	2382	277.517478220156	1
0	2384	277.570304071806	2
0	2385	277.753452125368	1
0	2387	277.753452125368	0
0	2393	278.911292507938	1
0	2395	278.932040147688	2
0	2396	279.043749864143	1
0	2398	279.043749864143	0
0	2409	280.586849743027	1
0	2410	280.865014153688	0
0	2417	282.083553940491	1
0	2418	282.205117123461	0
0	2425	282.243754409415	1
0	2427	282.513365570246	2
0	2428	282.54772469622	1
0	2430	282.54772469622	0
0	2433	282.795305788782	1
0	2435	282.872559557774	2
0	2436	282.890314301571	1
0	2438	282.890314301571	0
0	2441	282.906596171364	1
0	2442	283.232903906922	0
0	2449	283.73158527904	1
0	2450	283.99831180128	0
0	2457	284.94560677235	1
0	2459	285.14594480336	2
0	2461	285.172151178837	3
0	2462	285.20814874158	2
0	2464	285.20814874158	1
0	2465	285.20814874158	0
0	2468	285.234628436459	1
0	2469	285.550738346931	0
0	2476	286.293262901986	1
0	2477	286.594227597023	0
0	2484	287.209823158541	1
0	2485	287.241359943887	0
0	2489	287.564284163969	1
0	2492	287.754624920266	0
0	2518	292.177081551569	1
0	2519	292.442967108486	0
0	2526	292.676352510317	1
0	2528	292.849597419167	2
0	2529	293.009653706421	1
0	2531	293.009653706421	0
0	2542	295.590826024517	1
0	2543	295.62227251326	0
0	2552	296.320303749539	1
0	2553	296.465682417295	0
0	2560	297.013457087169	1
0	2561	297.217904849966	0
0	2578	299.456042446024	1
0	2579	299.782814011496	0
0	2591	300.916390679427	1
0	2593	301.05339566067	2
0	2594	301.076588960742	1
0	2596	301.076588960742	0
0	2629	306.516581205396	1
0	2630	306.575640182923	0
0	2639	309.940365640326	1
0	2640	310.068845489962	0
0	2647	310.628796310515	1
0	2648	310.886141992181	0
0	2655	311.030194407458	1
0	2656	311.239141770628	0
0	2663	311.867620094263	1
0	2664	312.028083919361	0
0	2671	312.145319369391	1
0	2673	312.383806908337	2
0	2674	312.389307684144	1
0	2676	312.389307684144	0
0	2679	312.441406390616	1
0	2682	312.902572660523	0
0	2688	313.263584952016	1
0	2690	313.469855571699	2
0	2691	313.584963470805	1
0	2693	313.584963470805	0
0	2704	315.948064834232	1
0	2705	316.028082552423	0
0	2712	316.313830788609	1
0	2713	316.612617547207	0
0	2720	317.861428745566	1
0	2721	318.127148131952	0
0	2733	319.899977176774	1
0	2734	320.000660552373	0
0	2746	322.904425442419	1
0	2747	323.101066603202	0
0	2754	325.582872166434	1
0	2755	325.790077901143	0
0	2762	326.069526167963	1
0	2764	326.310526898642	2
0	2766	326.346259688154	3
0	2767	326.399208129575	2
0	2769	326.399208129575	1
0	2770	326.399208129575	0
0	2778	327.561106448202	1
0	2779	327.830470852546	0
0	2786	328.707829792016	1
0	2787	328.913735507576	0
0	2794	331.559077949614	1
0	2795	331.589752387496	0
0	2799	331.716497699718	1
0	2801	331.89219441369	2
0	2802	331.932341992847	1
0	2804	331.932341992847	0
0	2807	332.214753742847	1
0	2808	332.274931598198	0
0	2812	332.544472105384	1
0	2813	332.617521203549	0
0	2820	332.881612297662	1
0	2821	333.046585279345	0
0	2838	334.472118517262	1
0	2839	334.734204586792	0
0	2866	338.328151774877	1
0	2868	338.510134099186	2
0	2869	338.5158985261	1
0	2871	338.5158985261	0
0	2874	338.600958268955	1
0	2876	338.814054686636	2
0	2877	338.858488131451	1
0	2879	338.858488131451	0
0	2887	339.413276750597	1
0	2890	339.721347038607	0
0	2901	340.551693848879	1
0	2903	340.580392250163	2
0	2904	340.616983694177	1
0	2906	340.616983694177	0
0	2919	343.32701749199	1
0	2920	343.56285709545	0
0	2927	344.523360478094	1
0	2928	344.685508012168	0
0	2935	345.135518105428	1
0	2936	345.332436134337	0
0	2943	345.868124380741	1
0	2944	346.072511972227	0
0	2951	346.441994842786	1
0	2952	346.664289231174	0
0	2959	346.824416881927	1
0	2961	346.870827159609	2
0	2962	347.080535406668	1
0	2964	347.080535406668	0
0	2970	348.067286322721	1
0	2972	348.222579495436	2
0	2974	348.258619028406	3
0	2975	348.278070800458	2
0	2977	348.278070800458	1
0	2980	348.415447898809	2
0	2981	348.620660405809	1
0	2983	348.620660405809	0
0	2989	349.08459509937	1
0	2990	349.191879044143	0
0	2997	349.421927336119	1
0	2998	349.670178107028	0
0	3010	352.242777240906	1
0	3012	352.384645765766	2
0	3013	352.415775880523	1
0	3015	352.415775880523	0
0	3018	352.65777830701	1
0	3019	352.758365485874	0
0	3031	354.774671874655	1
0	3033	355.018889528667	2
0	3034	355.025677278405	1
0	3036	355.025677278405	0
0	3044	355.752042052072	1
0	3045	355.819896920641	0
0	3057	358.13672124488	1
0	3059	358.228932400982	2
0	3060	358.285711389268	1
0	3062	358.285711389268	0
0	3065	358.306240462806	1
0	3066	358.628300994619	0
0	3078	360.810477449896	1
0	3080	360.890429836918	2
0	3081	361.01485621653	1
0	3083	361.01485621653	0
0	3106	363.716198020665	1
0	3107	363.722870953692	0
0	3110	363.886050164295	1
0	3112	363.901206699734	2
0	3114	363.931530665211	3
0	3115	364.065460559043	2
0	3117	364.065460559043	1
0	3118	364.065460559043	0
0	3124	364.678939652783	1
0	3125	364.955878000927	0
0	3132	365.278452589168	1
0	3133	365.458888638645	0
0	3140	365.758955749156	1
0	3142	365.962115409376	2
0	3143	366.002519871269	1
0	3145	366.002519871269	0
0	3148	366.045220721523	1
0	3149	366.34510947662	0
0	3156	367.838109370692	1
0	3158	367.948102230288	2
0	3159	368.15035867698	1
0	3161	368.15035867698	0
0	3167	369.048410175067	1
0	3168	369.272837887473	0
0	3190	372.751310982658	1
0	3191	373.06379273743	0
0	3198	374.028177847115	1
0	3199	374.076272037546	0
0	3233	378.46841459594	1
0	3235	378.522644620092	2
0	3237	378.551842262479	3
0	3238	378.649688894303	2
0	3240	378.649688894303	1
0	3241	378.649688894303	0
0	3247	378.960411099556	1
0	3248	379.039536812931	0
0	3260	381.350207609584	1
0	3261	381.63755512491	0
0	3273	382.254139206902	1
0	3274	382.442496281341	0
0	3291	384.265479464846	1
0	3292	384.285443447854	0
0	3322	389.72475398659	1
0	3324	389.81226897203	2
0	3325	389.881400348418	1
0	3327	389.881400348418	0
0	3338	391.569799285936	1
0	3339	391.866744023892	0
0	3346	392.201725874498	1
0	3347	392.416290264967	0
0	3359	393.384509998232	1
0	3360	393.445758533403	0
0	3367	393.98663574576	1
0	3368	394.082955925492	0
0	3375	394.433800435681	1
0	3377	394.46135131024	2
0	3378	394.614028276138	1
0	3380	394.614028276138	0
0	3386	394.858622177044	1
0	3387	394.979792295763	0
0	3399	396.644556946677	1
0	3400	396.899385543729	0
0	3412	398.160531836279	1
0	3413	398.441089600479	0
0	3440	402.450532791936	1
0	3441	402.683272797482	0
0	3448	403.000494834233	1
0	3449	403.031529319057	0
0	3453	403.349411049463	1
0	3454	403.374118924408	0
0	3463	403.832778300456	1
0	3465	404.030156569191	2
0	3467	404.084463389403	3
0	3468	404.148612794261	2
0	3470	404.148612794261	1
0	3471	404.148612794261	0
0	3477	404.632867064778	1
0	3479	404.647750345985	2
0	3480	404.793486245604	1
0	3482	404.793486245604	0
0	3488	404.906337439591	1
0	3489	405.155934515981	0
0	3513	408.792111705426	1
0	3514	408.924648383805	0
0	3520	409.319519627321	1
0	3521	409.340870463221	0
0	3525	409.585071775012	1
0	3526	409.683460068572	0
0	3533	409.953031840098	1
0	3534	410.037272632468	0
0	3551	411.283574734039	1
0	3552	411.422636373482	0
0	3564	414.392637915228	1
0	3566	414.419230547847	2
0	3568	414.508598779277	3
0	3569	414.536315335787	2
0	3571	414.536315335787	1
0	3572	414.536315335787	0
0	3585	415.674114332092	1
0	3586	415.933204019908	0
0	3593	416.698401257974	1
0	3594	416.812539716252	0
0	3601	418.319815145473	1
0	3602	418.625432986928	0
0	3609	418.875538990211	1
0	3610	419.200653808821	0
0	3622	421.059828051553	1
0	3623	421.353900234679	0
0	3630	421.835605199191	1
0	3631	421.967272406587	0
0	3643	422.76644511256	1
0	3645	422.953159356887	2
0	3646	423.024257546715	1
0	3648	423.024257546715	0
0	3659	424.127924310349	1
0	3661	424.178330891567	2
0	3662	424.308918344359	1
0	3664	424.308918344359	0
0	3675	425.535296458103	1
0	3676	425.688965599371	0
0	3688	427.796236144688	1
0	3689	427.991522251862	0
0	3696	428.500624234867	1
0	3697	428.698330532841	0
0	3709	429.754692792555	1
0	3710	430.036979221935	0
0	3717	430.655899313107	1
0	3718	430.74945419604	0
0	3727	431.752964004993	1
0	3728	431.909383448951	0
0	3734	432.28166841531	1
0	3736	432.412818289258	2
0	3737	432.518959570529	1
0	3739	432.518959570529	0
0	3745	432.943964336661	1
0	3746	433.07050332191	0
0	3753	433.298913977483	1
0	3754	433.618392705859	0
0	3761	434.341767146086	1
0	3762	434.354686682683	0
0	3771	436.021377092226	1
0	3773	436.039618273292	2
0	3774	436.299072960786	1
0	3776	436.299072960786	0
0	3787	437.380098974236	1
0	3788	437.650859682053	0
0	3800	439.826581428009	1
0	3801	439.827309655025	0
0	3815	441.142801890407	1
0	3816	441.407923397589	0
0	3823	443.766065722013	1
0	3825	443.816370935306	2
0	3826	443.843899046616	1
0	3828	443.843899046616	0
0	3831	443.965310129946	1
0	3833	444.039394631222	2
0	3835	444.100841965679	3
0	3836	444.186488651967	2
0	3838	444.186488651967	1
0	3839	444.186488651967	0
0	3850	444.954423680887	1
0	3851	445.014124832402	0
0	3855	445.26138074477	1
0	3856	445.356714437753	0
0	3883	449.43146422502	1
0	3884	449.496075867417	0
0	3906	451.573480273719	1
0	3907	451.746720318112	0
0	3919	452.773021173822	1
0	3920	452.824498012116	0
0	3926	453.193205689013	1
0	3927	453.337762988495	0
0	3933	453.961077589649	1
0	3935	454.073631619391	2
0	3936	454.216717657653	1
0	3938	454.216717657653	0
0	3949	455.600518179398	1
0	3950	455.712345599529	0
0	3962	458.141467292896	1
0	3963	458.340859749558	0
0	3975	461.276905716736	1
0	3976	461.509900143194	0
0	3983	461.881919111779	1
0	3984	462.007380853162	0
0	3991	462.640489556102	1
0	3992	462.873988726168	0
0	3999	463.547936698878	1
0	4000	463.598708280701	0
0	4029	466.868619995581	1
0	4031	466.927589794143	2
0	4032	467.047832322291	1
0	4034	467.047832322291	0
0	4040	468.19582636263	1
0	4041	468.324590425708	0
0	4048	468.814026161378	1
0	4050	468.995761529829	2
0	4051	469.131555163826	1
0	4053	469.131555163826	0
0	4059	469.435850661423	1
0	4061	469.568693095688	2
0	4062	469.641021953183	1
0	4064	469.641021953183	0
0	4070	470.667955459274	1
0	4071	470.757768797703	0
0	4088	472.601853132836	1
0	4089	472.880771840866	0
0	4096	473.824144218587	1
0	4098	474.046587004851	2
0	4099	474.124517449024	1
0	4101	474.124517449024	0
0	4117	476.570316502656	1
0	4118	476.615925369926	0
0	4122	476.701696058181	1
0	4124	476.709835811105	2
0	4126	476.786177583115	3
0	4127	476.958514975277	2
0	4129	476.958514975277	1
0	4130	476.958514975277	0
0	4141	478.708234416598	1
0	4143	478.795823264622	2
0	4145	478.877702897709	3
0	4148	479.09820474268	2
0	4149	479.09820474268	1
0	4150	479.09820474268	0
0	4166	483.717102916738	1
0	4167	483.865433519119	0
0	4189	486.895730225546	1
0	4190	487.152948783005	0
0	4197	487.951232476106	1
0	4198	488.17445561742	0
0	4210	491.100729485067	1
0	4211	491.104631143846	0
0	4215	491.265069475659	1
0	4217	491.41487417708	2
0	4218	491.447220749197	1
0	4220	491.447220749197	0
0	4223	491.746883999765	1
0	4224	491.789810354548	0
0	4228	491.862955569072	1
0	4229	492.132399959899	0
0	4246	495.574212317938	1
0	4247	495.840756038361	0
0	4264	497.918623410191	1
0	4265	498.089975769351	0
0	4277	499.544169175629	1
0	4278	499.705562953179	0
0	4285	502.262716975635	1
0	4286	502.453490402214	0
0	4293	502.954726660813	1
0	4294	503.036303986041	0
0	4311	505.938809967149	1
0	4312	506.045123251437	0
0	4319	506.81185315294	1
0	4320	507.035995028996	0
0	4327	507.820954816825	1
0	4328	507.874235724117	0
0	4343	509.030409789678	1
0	4344	509.155500281373	0
0	4351	509.448920808037	1
0	4353	509.466565341493	2
0	4354	509.570650455786	1
0	4356	509.570650455786	0
0	4362	510.747196314336	1
0	4363	510.765146870183	0
0	4367	510.968821641809	1
0	4368	511.107736475534	0
0	4380	512.591102728555	1
0	4382	512.612803891904	2
0	4383	512.915142054193	1
0	4385	512.915142054193	0
0	4391	513.371069321807	1
0	4392	513.642920748691	0
0	4399	513.910584524161	1
0	4401	514.009201973301	2
0	4402	514.190553784114	1
0	4404	514.190553784114	0
0	4410	514.302431317794	1
0	4412	514.527693338782	2
0	4413	514.540420023271	1
0	4415	514.540420023271	0
0	4423	515.371703343426	1
0	4424	515.447205602534	0
0	4446	518.106732623114	1
0	4447	518.320046224747	0
0	4454	518.860888209703	1
0	4456	519.002291953016	2
0	4457	519.007685865815	1
0	4459	519.007685865815	0
0	4462	519.151256645964	1
0	4463	519.350275471166	0
0	4470	520.109639410754	1
0	4471	520.143718521826	0
0	4475	520.232063035547	1
0	4476	520.486308127177	0
0	4488	523.542616432244	1
0	4489	523.608008391925	0
0	4501	524.998858219867	1
0	4502	525.125909467893	0
0	4509	525.70596870416	1
0	4511	525.712574655421	2
0	4512	525.941971591147	1
0	4514	525.941971591147	0
0	4520	526.579546816833	1
0	4521	526.582544236066	0
0	4525	526.684806558563	1
0	4527	526.768959071294	2
0	4528	526.925133841417	1
0	4530	526.925133841417	0
0	4546	530.09310425278	1
0	4547	530.326989161738	0
0	4570	532.94008977457	1
0	4571	533.278093184161	0
0	4578	533.472243216192	1
0	4580	533.487999523993	2
0	4581	533.752104874497	1
0	4583	533.752104874497	0
0	4589	534.361866608149	1
0	4590	534.550979839357	0
0	4597	534.936614256097	1
0	4598	535.136400011808	0
0	4610	536.540524454597	1
0	4611	536.82283929384	0
0	4618	536.919842214178	1
0	4619	537.254700971326	0
0	4631	538.593205269769	1
0	4632	538.805700611379	0
0	4639	540.031743671453	1
0	4641	540.063704383465	2
0	4643	540.28997506036	3
0	4644	540.349730928372	2
0	4646	540.349730928372	1
0	4647	540.349730928372	0
0	4655	541.007509312013	1
0	4657	541.145383630156	2
0	4658	541.15532578319	1
0	4660	541.15532578319	0
0	4678	543.235618723555	1
0	4679	543.321207146006	0
0	4686	543.746307668187	1
0	4688	543.849424444597	2
0	4689	543.89233760583	1
0	4691	543.89233760583	0
0	4709	546.031363445203	1
0	4710	546.285503274329	0
0	4717	547.061180931675	1
0	4718	547.329575693649	0
0	4725	548.525492166463	1
0	4726	548.691445047758	0
0	4738	549.359705262118	1
0	4739	549.45110425859	0
0	4762	551.673553854939	1
0	4763	551.796076824865	0
0	4785	557.4269620835	1
0	4786	557.748105158648	0
0	4793	557.998855930706	1
0	4794	558.284801880723	0
0	4806	560.591435388847	1
0	4807	560.81411883546	0
0	4819	562.186237057271	1
0	4821	562.482413597511	2
0	4822	562.483683547954	1
0	4824	562.483683547954	0
0	4832	563.227500563704	1
0	4833	563.25526285636	0
0	4837	563.502798257349	1
0	4838	563.597852461711	0
0	4850	564.423211375411	1
0	4851	564.523195413446	0
0	4868	567.526680706172	1
0	4869	567.703397219896	0
0	4876	569.90522497488	1
0	4878	570.074753443788	2
0	4879	570.158106346939	1
0	4881	570.158106346939	0
0	4897	572.852748002714	1
0	4898	573.040082287552	0
0	4915	574.073681230828	1
0	4916	574.243757294842	0
0	4923	574.595160160713	1
0	4925	574.826006558083	2
0	4926	574.871932236694	1
0	4928	574.871932236694	0
0	4931	574.927183090447	1
0	4932	575.214521842045	0
0	4939	575.51782915439	1
0	4941	575.527364871592	2
0	4942	575.700504062691	1
0	4944	575.700504062691	0
0	4950	576.05744334433	1
0	4952	576.117775124856	2
0	4953	576.151791824214	1
0	4955	576.151791824214	0
0	4974	579.004084398436	1
0	4975	579.057782606549	0
0	4979	579.15981727352	1
0	4980	579.4003722119	0
0	4987	579.890922316473	1
0	4988	580.065751173333	0
0	4995	580.886297150515	1
0	4996	580.957465566195	0
0	5003	581.347639089783	1
0	5005	581.409001256311	2
0	5006	581.474570134369	1
0	5008	581.474570134369	0
0	5029	584.256033157776	1
0	5031	584.356409216477	2
0	5032	584.54410257417	1
0	5034	584.54410257417	0
0	5045	586.500997919413	1
0	5046	586.546552307986	0
0	5050	586.639038622996	1
0	5051	586.889141913337	0
0	5083	591.907896789831	1
0	5084	592.19897971111	0
0	5111	595.9499858577	1
0	5112	596.040550915871	0
0	5124	598.108744532221	1
0	5125	598.172035500393	0
0	5137	599.70441533679	1
0	5138	599.751337358569	0
0	5142	599.828582157591	1
0	5145	600.264602334948	0
0	5161	603.558581410763	1
0	5162	603.83918960159	0
0	5169	604.071221501895	1
0	5170	604.394683721581	0
0	5182	605.067153409196	1
0	5183	605.311069857775	0
0	5190	605.495472104508	1
0	5192	605.670987088875	2
0	5193	605.800751271565	1
0	5195	605.800751271565	0
0	5221	609.18936728177	1
0	5222	609.432195913114	0
0	5229	610.2555544403	1
0	5230	610.458960593108	0
0	5237	610.788847595085	1
0	5238	610.833516227379	0
0	5257	612.893303293327	1
0	5258	612.935921855179	0
0	5277	615.238281171519	1
0	5278	615.427482440068	0
0	5320	622.2713523765	1
0	5323	622.725060368333	0
0	5329	622.966392312104	1
0	5330	623.243596136887	0
0	5352	626.055219886543	1
0	5353	626.337868904769	0
0	5365	628.234574318792	1
0	5367	628.250611506232	2
0	5368	628.459763844284	1
0	5370	628.459763844284	0
0	5376	628.636866801492	1
0	5378	628.809900467966	2
0	5379	628.978673792564	1
0	5381	628.978673792564	0
0	5387	629.745605233026	1
0	5388	629.799677824158	0
0	5397	631.342570253943	1
0	5399	631.480168059217	2
0	5401	631.523341433498	3
0	5402	631.577290787427	2
0	5404	631.577290787427	1
0	5405	631.577290787427	0
0	5418	632.963053857244	1
0	5419	633.196128751718	0
0	5431	634.568491950512	1
0	5432	634.808206803715	0
0	5439	634.918462712139	1
0	5441	635.092619711264	2
0	5442	635.228921403878	1
0	5444	635.228921403878	0
0	5455	637.016092242549	1
0	5456	637.042450068013	0
0	5460	637.129321345198	1
0	5461	637.385039673364	0
0	5468	637.561426137255	1
0	5470	637.580713099332	2
0	5472	637.65318636925	3
0	5474	637.791867046849	4
0	5476	637.863395964965	5
0	5477	637.881101233667	4
0	5479	637.881101233667	3
0	5480	637.881101233667	2
0	5481	637.881101233667	1
0	5482	637.881101233667	0
0	5485	638.078048457388	1
0	5486	638.223690839018	0
0	5503	640.402938219348	1
0	5505	640.467156334687	2
0	5507	640.513193964908	3
0	5508	640.570541652473	2
0	5510	640.570541652473	1
0	5511	640.570541652473	0
0	5519	641.701603706033	1
0	5521	641.750238753172	2
0	5523	641.781247668288	3
0	5525	641.785341840604	4
0	5526	641.84547206581	3
0	5528	641.84547206581	2
0	5529	641.84547206581	1
0	5530	641.84547206581	0
0	5543	643.369934857739	1
0	5545	643.417273621497	2
0	5549	643.649146798691	3
0	5550	643.740219377204	2
0	5551	643.740219377204	1
0	5552	643.740219377204	0
0	5563	645.960305677883	1
0	5564	646.015018968707	0
0	5568	646.197992016296	1
0	5569	646.357608574058	0
0	5576	647.251888683647	1
0	5578	647.342622339902	2
0	5579	647.532483337283	1
0	5581	647.532483337283	0
0	5587	649.944985779386	1
0	5588	649.993336805904	0
0	5592	650.294278445741	1
0	5593	650.335926411255	0
0	5602	651.259991351657	1
0	5603	651.291979728095	0
0	5612	653.179442631967	1
0	5613	653.256465642328	0
0	5625	653.935685634687	1
0	5626	654.088017764671	0
0	5633	655.357051854479	1
0	5634	655.497323886099	0
0	5641	656.020337901011	1
0	5643	656.275126004184	2
0	5644	656.361158361608	1
0	5646	656.361158361608	0
0	5652	657.293708958304	1
0	5653	657.308100510585	0
0	5667	659.910944617866	1
0	5669	659.996956098972	2
0	5670	660.096565591871	1
0	5672	660.096565591871	0
0	5683	661.289714458848	1
0	5684	661.591202227275	0
0	5691	662.219836500147	1
0	5693	662.379927325173	2
0	5695	662.384769346907	3
0	5697	662.466551815582	4
0	5698	662.508629763989	3
0	5700	662.508629763989	2
0	5701	662.508629763989	1
0	5702	662.508629763989	0
0	5720	664.543347403776	1
0	5721	664.858859992462	0
0	5728	665.271132741243	1
0	5729	665.314354503939	0
0	5743	666.773282730091	1
0	5744	666.788946486468	0
0	5769	670.284682555878	1
0	5770	670.475116795507	0
0	5782	672.163802704364	1
0	5783	672.279577504074	0
0	5805	675.300219219075	1
0	5807	675.328385314737	2
0	5809	675.412745676367	3
0	5810	675.539152778293	2
0	5812	675.539152778293	1
0	5813	675.539152778293	0
0	5819	676.153516273873	1
0	5821	676.188782507401	2
0	5822	676.269829034387	1
0	5824	676.269829034387	0
0	5830	676.655245163062	1
0	5832	676.680713777515	2
0	5833	676.873018322841	1
0	5835	676.873018322841	0
0	5851	678.669700922778	1
0	5852	678.855942402408	0
0	5869	681.022485116745	1
0	5870	681.178534188235	0
0	5877	681.34594896429	1
0	5878	681.596225045548	0
0	5885	682.71775428176	1
0	5887	682.749458864288	2
0	5888	682.855852605627	1
0	5890	682.855852605627	0
0	5901	684.065524634743	1
0	5903	684.092790037047	2
0	5904	684.215622015013	1
0	5906	684.215622015013	0
0	5912	684.455527208436	1
0	5914	684.618583127627	2
0	5915	684.794760902907	1
0	5917	684.794760902907	0
0	5923	685.717595597337	1
0	5924	685.744387900183	0
0	5928	685.78644804989	1
0	5930	685.796967121388	2
0	5931	686.086977505534	1
0	5933	686.086977505534	0
0	5939	686.154845582547	1
0	5940	686.482933475768	0
0	5947	687.119818101011	1
0	5949	687.202504611696	2
0	5950	687.206477362879	1
0	5952	687.206477362879	0
0	5960	687.783868566107	1
0	5961	687.898772689334	0
0	5974	689.159191253317	1
0	5975	689.453687797535	0
0	5987	690.227608604166	1
0	5988	690.378489385966	0
0	6000	692.64006716562	1
0	6001	692.748905614263	0
0	6008	693.053259387916	1
0	6010	693.16021724724	2
0	6011	693.213345629317	1
0	6013	693.213345629317	0
0	6026	694.586170308539	1
0	6027	694.631290604883	0
0	6041	696.168114473209	1
0	6042	696.353529177583	0
0	6054	697.286713229956	1
0	6055	697.542623921159	0
0	6062	699.102699280045	1
0	6063	699.324688021879	0
0	6070	699.528750917822	1
0	6071	699.71144006028	0
0	6078	701.892813775895	1
0	6079	702.001753620482	0
0	6096	703.296054944383	1
0	6097	703.317929126155	0
0	6111	705.821246431856	1
0	6112	705.927027623438	0
0	6129	707.021103775485	1
0	6131	707.112862882063	2
0	6133	707.154318935908	3
0	6134	707.250438231721	2
0	6136	707.250438231721	1
0	6137	707.250438231721	0
0	6143	707.985173069955	1
0	6144	708.184904209402	0
0	6156	709.124543559572	1
0	6157	709.461945332803	0
0	6166	709.934456458853	1
0	6167	710.060584131998	0
0	6193	712.830884774967	1
0	6194	713.10830284753	0
0	6206	715.282357610826	1
0	6207	715.378651723201	0
0	6214	715.946359621875	1
0	6215	716.019873750236	0
0	6222	716.952642979533	1
0	6223	717.086150784663	0
0	6235	717.92905781869	1
0	6237	718.084913319983	2
0	6238	718.219851241837	1
0	6240	718.219851241837	0
0	6261	721.576628789782	1
0	6263	721.620066423336	2
0	6265	721.82600204582	3
0	6266	721.829923515627	2
0	6268	721.829923515627	1
0	6269	721.829923515627	0
0	6272	722.158919279961	1
0	6273	722.172513120978	0
0	6282	723.878120802535	1
0	6284	724.144267391014	2
0	6285	724.212079330027	1
0	6287	724.212079330027	0
0	6298	725.285280571141	1
0	6299	725.42483678793	0
0	6306	726.087026987868	1
0	6307	726.231933789499	0
0	6314	727.077433585666	1
0	6315	727.228562546523	0
0	6327	729.107539395769	1
0	6328	729.220878806001	0
0	6335	729.656574294846	1
0	6337	729.755725766412	2
0	6338	729.789988527902	1
0	6340	729.789988527902	0
0	6353	731.163900099222	1
0	6354	731.169298473916	0
0	6374	735.245442114365	1
0	6375	735.420069373113	0
0	6382	735.600453469258	1
0	6384	735.647372460059	2
0	6385	735.895794765608	1
0	6387	735.895794765608	0
0	6408	741.86339379824	1
0	6409	741.871815013386	0
0	6418	742.583436558525	1
0	6419	742.652566328262	0
0	6426	742.779150765388	1
0	6427	743.003159769444	0
0	6434	743.142975675829	1
0	6435	743.434086715553	0
0	6442	743.948510919581	1
0	6443	744.160722372653	0
0	6455	745.773764280526	1
0	6456	745.927198790236	0
0	6468	746.734724200895	1
0	6469	747.065353437982	0
0	6486	749.49555712773	1
0	6487	749.682541157437	0
0	6494	750.153834746778	1
0	6495	750.326285367633	0
0	6522	757.186729905559	1
0	6524	757.310980742611	2
0	6525	757.458159732358	1
0	6527	757.458159732358	0
0	6548	759.564417827839	1
0	6550	759.592515544981	2
0	6551	759.849031968213	1
0	6553	759.849031968213	0
0	6559	760.110549332113	1
0	6562	760.569623228895	0
0	6568	761.028037294052	1
0	6569	761.141577523554	0
0	6596	763.269038379805	1
0	6598	763.269549054753	2
0	6599	763.525409332499	1
0	6601	763.525409332499	0
0	6607	763.959882685245	1
0	6608	764.133830938279	0
0	6615	765.330260869351	1
0	6617	765.47716779081	2
0	6618	765.599363364075	1
0	6620	765.599363364075	0
0	6631	768.933177061653	1
0	6633	768.936294546844	2
0	6635	768.964473240729	3
0	6636	769.236492414874	2
0	6638	769.236492414874	1
0	6639	769.236492414874	0
0	6645	771.042858302866	1
0	6646	771.173805187701	0
0	6653	771.403333415095	1
0	6654	771.715276872495	0
0	6676	774.248031003315	1
0	6678	774.265625566101	2
0	6680	774.318621814846	3
0	6681	774.530192003421	2
0	6683	774.530192003421	1
0	6684	774.530192003421	0
0	6690	775.310876250696	1
0	6692	775.51923626271	2
0	6693	775.632325737144	1
0	6695	775.632325737144	0
0	6701	776.331750899112	1
0	6702	776.384140369308	0
0	6706	776.618909890415	1
0	6707	776.726729974659	0
0	6714	777.462692880423	1
0	6715	777.561200546597	0
0	6722	778.447380945376	1
0	6724	778.579505200861	2
0	6726	778.634115114973	3
0	6727	778.757814007965	2
0	6729	778.757814007965	1
0	6730	778.757814007965	0
0	6741	779.900933740253	1
0	6742	779.99770784799	0
0	6754	781.504847033249	1
0	6756	781.548042374949	2
0	6757	781.558323359105	1
0	6761	781.59490518363	2
0	6763	781.691634757161	3
0	6765	781.840762228273	4
0	6766	781.900912964456	3
0	6768	781.900912964456	2
0	6769	781.900912964456	1
0	6770	781.900912964456	0
0	6788	784.22829495956	1
0	6790	784.236007077403	2
0	6792	784.296613880085	3
0	6796	784.594531047625	4
0	6797	784.740408336475	3
0	6798	784.740408336475	2
0	6799	784.740408336475	1
0	6800	784.740408336475	0
0	6816	786.738515621658	1
0	6818	786.900707772499	2
0	6819	786.904423588927	1
0	6821	786.904423588927	0
0	6834	788.652272980481	1
0	6835	788.679454632237	0
0	6839	788.730129254076	1
0	6840	789.022044237588	0
0	6872	794.94117891975	1
0	6873	795.044791295762	0
0	6880	798.353506651687	1
0	6881	798.553936900672	0
0	6888	798.838497431849	1
0	6889	798.957956219297	0
0	6906	800.513114387366	1
0	6908	800.76948865357	2
0	6909	800.776102159125	1
0	6911	800.776102159125	0
0	6924	801.872644552213	1
0	6925	802.075169372438	0
0	6932	804.082918589464	1
0	6933	804.177867166933	0
0	6940	804.792922639079	1
0	6941	805.127995734382	0
0	6953	806.932684261051	1
0	6954	807.037876033897	0
0	6966	807.727663251746	1
0	6967	807.962136898121	0
0	6990	812.766024896849	1
0	6992	813.01131730098	2
0	6993	813.059241398706	1
0	6995	813.059241398706	0
0	6998	813.266816098326	1
0	7000	813.321520697368	2
0	7001	813.401831004057	1
0	7003	813.401831004057	0
0	7029	816.470571989391	1
0	7031	816.491442183306	2
0	7032	816.716560595951	1
0	7034	816.716560595951	0
0	7045	817.751484873983	1
0	7047	817.771445815667	2
0	7049	817.95100377902	3
0	7050	818.061102355643	2
0	7052	818.061102355643	1
0	7053	818.061102355643	0
0	7064	818.850834085231	1
0	7065	819.180508806814	0
0	7072	819.278455518046	1
0	7073	819.576268465278	0
0	7080	820.160703357586	1
0	7081	820.321061115341	0
0	7093	822.191261358821	1
0	7095	822.226302578421	2
0	7096	822.288963823884	1
0	7098	822.288963823884	0
0	7104	822.870665089597	1
0	7105	822.895559909283	0
0	7109	823.039981790908	1
0	7110	823.238149514634	0
0	7117	824.877304425451	1
0	7119	824.955357595775	2
0	7121	825.039612351544	3
0	7122	825.123522598607	2
0	7124	825.123522598607	1
0	7125	825.123522598607	0
0	7136	826.110639882181	1
0	7137	826.348926227994	0
0	7191	835.442019349583	1
0	7192	835.552912509667	0
0	7208	837.752169088018	1
0	7209	837.823324007538	0
0	7216	838.421339322684	1
0	7218	838.476543994548	2
0	7219	838.664828685756	1
0	7221	838.664828685756	0
0	7227	839.148292221288	1
0	7228	839.229458070131	0
0	7245	841.831348857585	1
0	7246	842.099642923706	0
0	7253	843.099875193905	1
0	7254	843.246381084467	0
0	7261	843.911767804641	1
0	7262	844.182684044675	0
0	7274	845.44274203698	1
0	7275	845.533293242208	0
0	7282	846.993772163446	1
0	7284	847.146468444263	2
0	7285	847.265502390349	1
0	7287	847.265502390349	0
0	7308	851.722563972876	1
0	7310	851.764593376897	2
0	7311	851.970822710487	1
0	7313	851.970822710487	0
0	7324	853.210342744688	1
0	7325	853.331427329948	0
0	7332	854.058307193253	1
0	7333	854.283854593633	0
0	7340	854.576793341111	1
0	7342	854.598444552343	2
0	7343	854.873991076387	1
0	7345	854.873991076387	0
0	7351	856.736560974854	1
0	7352	856.762208492817	0
0	7356	856.947206124949	1
0	7357	857.104798098168	0
0	7364	857.704042532306	1
0	7365	857.880663713928	0
0	7372	858.326832416664	1
0	7373	858.500279780858	0
0	7380	860.067603852941	1
0	7381	860.322577419392	0
0	7393	861.484318923714	1
0	7395	861.550796615646	2
0	7396	861.7347029498	1
0	7398	861.7347029498	0
0	7415	864.921464146516	1
0	7416	865.159411860279	0
0	7433	867.099025960541	1
0	7434	867.137775357404	0
0	7448	869.013180721273	1
0	7449	869.037035864122	0
0	7463	871.545592525895	1
0	7464	871.865504019229	0
0	7471	872.315624763156	1
0	7473	872.332725217924	2
0	7475	872.47730590741	3
0	7476	872.526397484408	2
0	7478	872.526397484408	1
0	7479	872.526397484408	0
0	7482	872.568489283835	1
0	7483	872.868987089759	0
0	7490	873.367170657255	1
0	7491	873.368960942487	0
0	7495	873.516374482168	1
0	7497	873.594026837114	2
0	7499	873.649836445707	3
0	7500	873.711550547838	2
0	7502	873.711550547838	1
0	7503	873.711550547838	0
0	7529	877.760106127947	1
0	7530	877.908879021748	0
0	7547	879.687627190204	1
0	7548	879.957487284886	0
0	7565	881.175846026537	1
0	7566	881.282636686994	0
0	7578	883.143357386173	1
0	7579	883.476070199974	0
0	7591	884.843769583257	1
0	7592	884.887354371561	0
0	7596	884.945162014871	1
0	7598	885.094152899037	2
0	7602	885.32609907216	3
0	7603	885.40061934794	2
0	7604	885.40061934794	1
0	7605	885.40061934794	0
0	7611	886.170784764028	1
0	7612	886.464640998431	0
0	7619	886.845149019008	1
0	7620	886.919431042947	0
0	7627	888.038161371281	1
0	7629	888.170139336076	2
0	7631	888.191377524657	3
0	7632	888.28789816941	2
0	7634	888.28789816941	1
0	7635	888.28789816941	0
0	7641	888.579865726701	1
0	7642	888.861184884372	0
0	7649	889.253968885687	1
0	7651	889.309553256187	2
0	7652	889.468864723255	1
0	7654	889.468864723255	0
0	7665	890.460669403542	1
0	7666	890.511074361977	0
0	7670	890.584628463602	1
0	7671	890.853663967328	0
0	7703	896.586359351458	1
0	7705	896.72161935009	2
0	7706	896.800840886046	1
0	7708	896.800840886046	0
0	7714	897.232397121221	1
0	7716	897.299948887962	2
0	7718	897.353020560168	3
0	7719	897.384067979102	2
0	7721	897.384067979102	1
0	7722	897.384067979102	0
0	7735	898.905615473549	1
0	7736	898.976293209405	0
0	7753	900.739682095771	1
0	7754	900.820372193718	0
0	7761	902.716620786871	1
0	7762	902.767231793779	0
0	7766	902.845689256719	1
0	7768	902.969466707881	2
0	7769	903.10982139913	1
0	7771	903.10982139913	0
0	7792	905.841770583512	1
0	7793	906.074319060136	0
0	7800	906.66098430311	1
0	7801	906.836190305098	0
0	7815	908.352769968408	1
0	7816	908.481804742607	0
0	7827	910.258451537001	1
0	7828	910.400993972478	0
0	7835	910.7160149802	1
0	7837	910.74214692261	2
0	7838	910.7467816348	1
0	7842	910.96758176587	2
0	7843	911.089371240151	1
0	7845	911.089371240151	0
0	7871	914.906180569142	1
0	7872	914.916377239015	0
0	7876	915.024901440727	1
0	7878	915.200859962927	2
0	7879	915.258966844366	1
0	7881	915.258966844366	0
0	7884	915.365582350363	1
0	7885	915.601556449717	0
0	7892	916.362883040668	1
0	7893	916.432325271524	0
0	7915	919.575600727309	1
0	7916	919.812268246136	0
0	7933	921.186557223723	1
0	7934	921.352811628647	0
0	7956	923.920896346232	1
0	7957	924.051328330355	0
0	7974	925.509733357325	1
0	7975	925.786089108131	0
0	7992	927.561846224024	1
0	7993	927.89735583216	0
0	8021	931.92040856806	1
0	8022	931.975562569773	0
0	8026	932.301217286813	1
0	8027	932.318152175124	0
0	8041	933.508718096916	1
0	8042	933.823792366996	0
0	8059	935.615660521867	1
0	8061	935.619160614426	2
0	8062	935.805631655683	1
0	8064	935.805631655683	0
0	8075	936.789689878927	1
0	8076	936.854278367378	0
0	8083	937.528280439676	1
0	8084	937.611810132064	0
0	8091	938.293776171305	1
0	8093	938.308258801843	2
0	8094	938.324914641407	1
0	8098	938.490815679572	2
0	8099	938.667504246758	1
0	8101	938.667504246758	0
0	8112	939.91501164775	1
0	8114	939.945401364089	2
0	8115	940.235787100665	1
0	8117	940.235787100665	0
0	8123	940.494767571721	1
0	8124	940.831956890006	0
0	8136	942.496426679265	1
0	8138	942.614162035584	2
0	8139	942.796842294587	1
0	8141	942.796842294587	0
0	8162	944.81793979468	1
0	8164	944.926723927857	2
0	8165	945.018204088657	1
0	8167	945.018204088657	0
0	8183	946.877650034258	1
0	8184	947.101550928408	0
0	8191	947.986046017814	1
0	8192	948.166740501997	0
0	8205	949.842768067627	1
0	8206	949.843978000331	0
0	8220	953.148725179573	1
0	8221	953.474496173933	0
0	8228	954.197664416774	1
0	8229	954.526595352509	0
0	8246	958.952080864788	1
0	8247	959.184011675925	0
0	8259	960.398575865673	1
0	8260	960.526494822483	0
0	8272	961.330318300077	1
0	8273	961.393094167668	0
0	8300	964.665921426608	1
0	8301	964.725815259895	0
0	8305	964.744150784301	1
0	8307	964.929822548498	2
0	8308	965.068404865246	1
0	8310	965.068404865246	0
0	8316	965.45185185787	1
0	8317	965.586580721172	0
0	8324	965.901990183775	1
0	8325	965.936041508636	0
0	8334	966.561865904452	1
0	8335	966.751138252317	0
0	8352	969.077089244727	1
0	8354	969.081014211926	2
0	8355	969.33596510988	1
0	8357	969.33596510988	0
0	8363	970.569261979254	1
0	8364	970.577598256483	0
0	8383	973.099664362156	1
0	8385	973.234364228322	2
0	8388	973.48962078545	1
0	8389	973.48962078545	0
0	8400	974.842062915288	1
0	8402	974.848394252302	2
0	8403	975.151886502471	1
0	8405	975.151886502471	0
0	8411	975.951404119134	1
0	8412	976.110725868397	0
0	8419	976.381790491633	1
0	8420	976.716261512017	0
0	8432	978.587427890127	1
0	8434	978.760299645586	2
0	8435	978.788889524075	1
0	8437	978.788889524075	0
0	8450	981.968970784276	1
0	8451	982.027568500031	0
0	8465	984.09242820889	1
0	8466	984.270928216941	0
0	8483	985.664724689613	1
0	8484	985.690040989936	0
0	8488	985.696735993567	1
0	8489	986.032630595287	0
0	8496	986.190160989162	1
0	8497	986.419108173996	0
0	8509	988.483234765876	1
0	8510	988.811708801781	0
0	8532	991.884654661203	1
0	8533	991.988990981214	0
0	8540	992.697828090825	1
0	8541	992.795657816631	0
0	8548	993.943659466112	1
0	8550	994.006084358137	2
0	8551	994.271476054652	1
0	8553	994.271476054652	0
0	8564	996.405360748672	1
0	8565	996.700895983719	0
0	8582	998.721162009111	1
0	8584	998.808168600419	2
0	8587	999.104066630885	1
0	8588	999.104066630885	0
1	5	1.599916188298	0.342589605351
1	14	2.300543507332	0.342589605351
1	25	3.22126216763	0.342589605351
1	32	4.251166769333	0.342589605351
1	39	5.350198615637	0.342589605351
1	45	6.24846026571	0.342589605351
1	50	6.637886679612	0.342589605351
1	57	7.227386956765	0.342589605351
1	63	7.702103641438	0.342589605351
1	68	8.096297539468	0.342589605351
1	75	9.116065967704	0.342589605351
1	81	9.647836405373	0.342589605351
1	88	10.275806215636	0.342589605351
1	94	11.290111217747	0.342589605351
1	99	11.993547200808	0.342589605351
1	104	12.437497410189	0.342589605351
1	111	13.722467859224	0.342589605351
1	119	14.537033757579	0.342589605351
1	125	16.413437191589	0.342589605351
1	134	17.024840467199	0.342589605351
1	138	17.36743007255	0.379112891089
1	147	17.969141167297	0.342589605351
1	154	18.877224706446	0.342589605351
1	161	19.860956697766	0.342589605351
1	164	20.203546303117	0.384153543533
1	171	21.742913100361	0.342589605351
1	179	23.75616459922	0.342589605351
1	187	24.325984780437	0.342589605351
1	195	24.803073525225	0.342589605351
1	201	25.305212213082	0.342589605351
1	207	26.000677718214	0.342589605351
1	216	27.277436862683	0.342589605351
1	225	27.631131308524	0.342589605351
1	231	28.062090762314	0.342589605351
1	238	29.410633675864	0.342589605351
1	244	30.640110571314	0.342589605351
1	249	31.035722536523	0.342589605351
1	256	31.591234616484	0.342589605351
1	265	31.933824221835	0.392321069961
1	273	33.030852711015	0.342589605351
1	284	33.391105467938	0.342589605351
1	292	33.756975441866	0.342589605351
1	299	34.273907307492	0.342589605351
1	306	34.616496912843	0.368478556413
1	313	35.018348261383	0.342589605351
1	320	35.361349252969	0.342589605351
1	328	36.164751082382	0.342589605351
1	331	36.507340687733	0.390284563573
1	336	37.860588212025	0.342589605351
1	343	39.747864847976	0.342589605351
1	349	40.61989793893	0.342589605351
1	358	41.242220314003	0.342589605351
1	367	42.625402867349	0.342589605351
1	375	43.593303686743	0.342589605351
1	381	43.958085029166	0.342589605351
1	392	44.356391563188	0.342589605351
1	399	44.698981168539	0.378071913775
1	407	45.206862110468	0.342589605351
1	413	46.762403341796	0.342589605351
1	420	47.701582790909	0.342589605351
1	431	48.291239417869	0.342589605351
1	434	48.63382902322	0.399913530135
1	442	49.834061601647	0.342589605351
1	448	51.43596561138	0.342589605351
1	457	52.307173720166	0.342589605351
1	461	52.649763325517	0.395418119163
1	466	53.215361174153	0.342589605351
1	473	54.000835319166	0.342589605351
1	483	54.384361287529	0.342589605351
1	490	54.940359824878	0.342589605351
1	495	56.103179453429	0.342589605351
1	502	56.547848201308	0.342589605351
1	507	56.890437806659	0.344258208668
1	517	57.47542071949	0.342589605351
1	524	57.827698438082	0.342589605351
1	529	58.693865448556	0.342589605351
1	536	59.667882274675	0.342589605351
1	544	60.255829284958	0.342589605351
1	554	63.558544902342	0.342589605351
1	565	64.341257373679	0.342589605351
1	568	64.68384697903	0.38315268116
1	576	65.671636126295	0.342589605351
1	579	66.014225731646	0.373966695925
1	586	66.491625936868	0.342589605351
1	592	66.940144713523	0.342589605351
1	597	67.564004544062	0.342589605351
1	604	67.954423176029	0.342589605351
1	611	68.29701278138	0.344326748822
1	615	68.639602386731	0.352469944413
1	622	69.477556246234	0.342589605351
1	632	70.391173896794	0.342589605351
1	639	70.752950564083	0.342589605351
1	645	71.266213432284	0.342589605351
1	654	72.668386328363	0.342589605351
1	658	73.010975933714	0.397832486904
1	665	74.129632194803	0.342589605351
1	673	74.608460809294	0.342589605351
1	681	76.213480634568	0.342589605351
1	684	76.556070239919	0.398305847907
1	691	77.272345733467	0.342589605351
1	701	77.675879613932	0.342589605351
1	710	78.768097915089	0.342589605351
1	716	79.146643593854	0.342589605351
1	725	80.020183174308	0.342589605351
1	733	80.362772779659	0.343452145004
1	744	82.216167591269	0.342589605351
1	751	82.613046761255	0.342589605351
1	756	84.138361570926	0.342589605351
1	761	85.573378919653	0.342589605351
1	766	87.74071292059	0.342589605351
1	775	88.861125780351	0.342589605351
1	783	89.203715385702	0.376950233248
1	790	89.955388971759	0.342589605351
1	797	90.380925037204	0.342589605351
1	803	91.244959444474	0.342589605351
1	808	91.785641651888	0.342589605351
1	813	92.244738523974	0.342589605351
1	818	92.589930292674	0.342589605351
1	823	93.789696095598	0.342589605351
1	828	94.320823415897	0.342589605351
1	834	95.71581505941	0.342589605351
1	839	96.579555766889	0.342589605351
1	846	96.991828876991	0.342589605351
1	852	98.183341791291	0.342589605351
1	859	99.165669399311	0.342589605351
1	865	100.002858864944	0.342589605351
1	870	100.739992394652	0.342589605351
1	877	101.510607853074	0.342589605351
1	885	102.775884702015	0.342589605351
1	893	103.64844959809	0.342589605351
1	905	104.42483109544	0.342589605351
1	913	105.121311814795	0.342589605351
1	918	105.590980163229	0.342589605351
1	923	106.351679878215	0.342589605351
1	928	107.34137232324	0.342589605351
1	935	107.73898907553	0.342589605351
1	941	108.219856232472	0.342589605351
1	946	109.228051262939	0.342589605351
1	953	110.005136081713	0.342589605351
1	965	111.818942228439	0.342589605351
1	974	112.16153183379	0.390471817999
1	978	112.504121439141	0.379618341251
1	983	113.534974700577	0.342589605351
1	990	114.200870323923	0.342589605351
1	998	114.697091912931	0.342589605351
1	1006	115.459856473089	0.342589605351
1	1012	116.844919043207	0.342589605351
1	1019	118.293737237262	0.342589605351
1	1024	118.636326842613	0.38381447256
1	1030	118.9829611326	0.342589605351
1	1039	119.637905756709	0.342589605351
1	1044	120.987549826105	0.342589605351
1	1055	122.25509393018	0.342589605351
1	1063	122.656598552888	0.342589605351
1	1072	123.384972856774	0.342589605351
1	1081	123.879554413306	0.342589605351
1	1086	124.222144018657	0.39025535895
1	1092	124.571916229422	0.342589605351
1	1097	125.207287667292	0.342589605351
1	1104	125.784196289464	0.342589605351
1	1112	126.445290216613	0.342589605351
1	1118	127.066949250416	0.342589605351
1	1125	127.671996820174	0.342589605351
1	1128	128.014586425525	0.39627064405
1	1133	128.744737669081	0.342589605351
1	1140	129.926472451485	0.342589605351
1	1148	131.020280724525	0.342589605351
1	1158	132.353543656822	0.342589605351
1	1165	132.963240336947	0.342589605351
1	1174	134.271107904278	0.342589605351
1	1178	134.613697509629	0.379997770779
1	1185	135.210348092099	0.342589605351
1	1191	135.752533663302	0.342589605351
1	1198	136.163836328133	0.342589605351
1	1208	136.750890284337	0.342589605351
1	1217	138.634808700812	0.342589605351
1	1223	139.11124668543	0.342589605351
1	1228	140.23828258913	0.342589605351
1	1233	140.898858564657	0.342589605351
1	1240	142.263170804131	0.342589605351
1	1247	142.77643578051	0.372857168501
1	1254	143.260728050617	0.342589605351
1	1257	143.603317655968	0.402952365715
1	1262	144.755852259058	0.342589605351
1	1269	145.172258483193	0.342589605351
1	1277	145.630355037443	0.342589605351
1	1285	146.260044468647	0.342589605351
1	1293	146.664406674585	0.342589605351
1	1301	147.309302870634	0.342589605351
1	1307	148.273643927255	0.342589605351
1	1312	148.705110632976	0.342589605351
1	1317	151.187390863456	0.342589605351
1	1324	154.381858929415	0.342589605351
1	1334	154.757309590696	0.342589605351
1	1343	155.116117175199	0.342589605351
1	1351	155.487121723201	0.342589605351
1	1357	156.708413453173	0.342589605351
1	1364	157.17243660216	0.342589605351
1	1376	158.431018298536	0.342589605351
1	1386	158.926157873426	0.342589605351
1	1392	159.411679725358	0.342589605351
1	1397	159.806276076363	0.342589605351
1	1402	160.714989165353	0.342589605351
1	1407	161.625275608978	0.342589605351
1	1412	162.071286934077	0.342589605351
1	1417	162.801885048079	0.342589605351
1	1422	165.428285604258	0.342589605351
1	1427	166.082039818648	0.342589605351
1	1432	166.773032917055	0.342589605351
1	1441	167.335663061367	0.342589605351
1	1449	168.853169376872	0.342589605351
1	1454	169.363903514184	0.342589605351
1	1459	171.317145051214	0.342589605351
1	1466	171.959771341275	0.342589605351
1	1472	172.621474421415	0.342589605351
1	1479	173.151204222839	0.342589605351
1	1485	173.605855696674	0.342589605351
1	1490	174.154720161536	0.342589605351
1	1497	175.437874477217	0.342589605351
1	1503	176.369846655715	0.342589605351
1	1508	176.860510238596	0.342589605351
1	1513	177.938277849334	0.342589605351
1	1518	178.335521433306	0.342589605351
1	1525	179.369553632097	0.342589605351
1	1531	179.756345493799	0.342589605351
1	1536	180.353584444141	0.342589605351
1	1543	180.960247800452	0.342589605351
1	1553	182.793178753241	0.342589605351
1	1559	183.135768358592	0.348953196535
1	1569	183.553169828821	0.342589605351
1	1576	184.96160177211	0.342589605351
1	1583	185.374065745079	0.342589605351
1	1591	185.754716259113	0.342589605351
1	1599	186.165616617737	0.342589605351
1	1605	186.528770232086	0.342589605351
1	1612	187.02646464843	0.342589605351
1	1620	187.405247489691	0.342589605351
1	1626	188.962612784031	0.342589605351
1	1633	191.179931741815	0.342589605351
1	1641	191.531688978793	0.342589605351
1	1650	192.075835477394	0.342589605351
1	1656	192.881483768801	0.342589605351
1	1661	195.324211786319	0.342589605351
1	1668	196.630635879636	0.342589605351
1	1674	197.544775090077	0.342589605351
1	1681	198.279716414546	0.342589605351
1	1687	201.154278589658	0.342589605351
1	1694	201.998770840885	0.342589605351
1	1702	202.532100406438	0.342589605351
1	1710	203.173010048524	0.342589605351
1	1722	204.471278272775	0.342589605351
1	1727	204.813867878126	0.362781145286
1	1738	206.039023392068	0.342589605351
1	1746	207.353858834913	0.342589605351
1	1751	207.719464016021	0.342589605351
1	1756	208.117399183761	0.342589605351
1	1761	208.63541576288	0.342589605351
1	1766	209.183694819859	0.342589605351
1	1771	210.67309453766	0.342589605351
1	1778	211.028793559238	0.342589605351
1	1784	211.456309113892	0.342589605351
1	1789	211.975994179732	0.342589605351
1	1796	212.923173690708	0.342589605351
1	1808	213.784383971401	0.342589605351
1	1816	214.348352361411	0.342589605351
1	1821	215.133220615908	0.342589605351
1	1828	215.571692585347	0.342589605351
1	1836	216.214696052542	0.342589605351
1	1846	216.815157463941	0.342589605351
1	1853	217.76891155403	0.342589605351
1	1865	218.363547815155	0.342589605351
1	1873	220.190210832058	0.342589605351
1	1880	221.209211710893	0.342589605351
1	1886	221.8303956061	0.342589605351
1	1893	223.264862821763	0.342589605351
1	1901	223.77464431168	0.342589605351
1	1907	225.184746724492	0.342589605351
1	1912	226.413830678452	0.342589605351
1	1917	226.939922930792	0.342589605351
1	1922	227.36803922118	0.342589605351
1	1927	229.338966072295	0.342589605351
1	1936	229.715521394024	0.342589605351
1	1943	230.130600011175	0.342589605351
1	1948	233.000305819393	0.342589605351
1	1953	233.369502052934	0.342589605351
1	1962	234.422552095148	0.342589605351
1	1966	234.765141700499	0.368020161518
1	1975	235.370602580943	0.342589605351
1	1984	235.74015336827	0.342589605351
1	1990	236.152450305135	0.342589605351
1	1995	236.557970452576	0.342589605351
1	2004	237.038255350102	0.342589605351
1	2008	237.380844955453	0.346628083148
1	2015	238.199604263087	0.342589605351
1	2021	239.266279739484	0.342589605351
1	2028	239.614505417724	0.342589605351
1	2036	240.254132451383	0.342589605351
1	2042	240.899358493768	0.342589605351
1	2047	241.415733777702	0.342589605351
1	2052	241.833576561204	0.342589605351
1	2060	242.704385240516	0.342589605351
1	2068	243.680348651624	0.342589605351
1	2078	244.068754961077	0.342589605351
1	2087	244.467960893169	0.342589605351
1	2093	245.257001800003	0.342589605351
1	2098	246.830834949928	0.342589605351
1	2107	247.324615762595	0.342589605351
1	2116	247.670328496496	0.342589605351
1	2126	248.534858397191	0.342589605351
1	2133	249.399574872496	0.342589605351
1	2142	250.149744893624	0.342589605351
1	2146	250.492334498975	0.358652166409
1	2155	252.811396428119	0.342589605351
1	2161	253.15398603347	0.38816147066
1	2169	253.537814044916	0.342589605351
1	2177	255.019127672358	0.342589605351
1	2182	255.361717277709	0.398810500967
1	2188	255.811544331844	0.342589605351
1	2193	256.654756724308	0.342589605351
1	2198	257.975929986008	0.342589605351
1	2205	259.267028948317	0.342589605351
1	2213	259.61069669972	0.342589605351
1	2221	260.173596622928	0.342589605351
1	2229	261.046333440481	0.342589605351
1	2235	261.430585468201	0.342589605351
1	2240	262.268069450178	0.342589605351
1	2247	262.847185451736	0.342589605351
1	2257	263.877940993298	0.342589605351
1	2264	264.487349449556	0.342589605351
1	2269	265.247145785257	0.342589605351
1	2277	266.637714756746	0.342589605351
1	2283	267.345618345164	0.342589605351
1	2290	268.198198195211	0.342589605351
1	2295	268.540787800562	0.376706852547
1	2301	269.426780950742	0.342589605351
1	2308	270.139860346672	0.342589605351
1	2314	271.030516567741	0.342589605351
1	2321	271.711511948437	0.342589605351
1	2327	272.182688911127	0.342589605351
1	2334	273.255837406389	0.342589605351
1	2340	273.637292154765	0.342589605351
1	2345	274.212495476147	0.342589605351
1	2356	274.785923056245	0.342589605351
1	2364	275.558940901898	0.342589605351
1	2371	276.313107599302	0.342589605351
1	2377	277.131101016578	0.342589605351
1	2386	277.753452125368	0.342589605351
1	2397	279.043749864143	0.342589605351
1	2404	280.328479333754	0.342589605351
1	2411	280.865014153688	0.342589605351
1	2419	282.205117123461	0.342589605351
1	2429	282.54772469622	0.342589605351
1	2437	282.890314301571	0.376948731325
1	2443	283.232903906922	0.360344349148
1	2451	283.99831180128	0.342589605351
1	2463	285.20814874158	0.342589605351
1	2470	285.550738346931	0.378587168094
1	2478	286.594227597023	0.342589605351
1	2486	287.241359943887	0.342589605351
1	2491	287.583949549238	0.374126390697
1	2498	288.11779985375	0.342589605351
1	2503	289.446306608974	0.342589605351
1	2508	290.262695575851	0.342589605351
1	2513	291.534439939631	0.342589605351
1	2520	292.442967108486	0.342589605351
1	2530	293.009653706421	0.342589605351
1	2537	293.367586666016	0.342589605351
1	2544	295.62227251326	0.342589605351
1	2547	295.964862118611	0.374036094094
1	2554	296.465682417295	0.342589605351
1	2562	297.217904849966	0.342589605351
1	2568	297.687385043344	0.342589605351
1	2573	299.043845495354	0.342589605351
1	2580	299.782814011496	0.342589605351
1	2586	300.435294170614	0.342589605351
1	2595	301.076588960742	0.342589605351
1	2599	301.419178566093	0.365782905423
1	2604	301.816485555297	0.342589605351
1	2609	302.922494743671	0.342589605351
1	2614	303.385119405557	0.342589605351
1	2619	303.985964047668	0.342589605351
1	2624	305.842143181426	0.342589605351
1	2631	306.575640182923	0.342589605351
1	2634	306.918229788274	0.401648582878
1	2641	310.068845489962	0.342589605351
1	2649	310.886141992181	0.342589605351
1	2657	311.239141770628	0.342589605351
1	2665	312.028083919361	0.342589605351
1	2675	312.389307684144	0.342589605351
1	2681	312.731897289495	0.348090381158
1	2692	313.584963470805	0.342589605351
1	2699	314.301535574513	0.342589605351
1	2706	316.028082552423	0.342589605351
1	2714	316.612617547207	0.342589605351
1	2722	318.127148131952	0.342589605351
1	2728	319.020512778101	0.342589605351
1	2735	320.000660552373	0.342589605351
1	2741	321.757135254657	0.342589605351
1	2748	323.101066603202	0.342589605351
1	2756	325.790077901143	0.342589605351
1	2768	326.399208129575	0.342589605351
1	2773	326.741797734926	0.395538046772
1	2780	327.830470852546	0.342589605351
1	2788	328.913735507576	0.342589605351
1	2796	331.589752387496	0.342589605351
1	2803	331.932341992847	0.373264043233
1	2809	332.274931598198	0.382737184508
1	2814	332.617521203549	0.402767460702
1	2822	333.046585279345	0.342589605351
1	2828	333.512356021139	0.342589605351
1	2833	334.211246799647	0.342589605351
1	2840	334.734204586792	0.342589605351
1	2846	335.222123781338	0.342589605351
1	2851	336.149217426307	0.342589605351
1	2856	337.680041482981	0.342589605351
1	2861	338.070899713344	0.342589605351
1	2870	338.5158985261	0.342589605351
1	2878	338.858488131451	0.348354032265
1	2882	339.201077736802	0.387023050166
1	2889	339.550671667579	0.342589605351
1	2896	340.14464978215	0.342589605351
1	2905	340.616983694177	0.342589605351
1	2909	340.959573299528	0.379181049365
1	2914	343.020976535772	0.342589605351
1	2921	343.56285709545	0.342589605351
1	2929	344.685508012168	0.342589605351
1	2937	345.332436134337	0.342589605351
1	2945	346.072511972227	0.342589605351
1	2953	346.664289231174	0.342589605351
1	2963	347.080535406668	0.342589605351
1	2976	348.278070800458	0.342589605351
1	2982	348.620660405809	0.398080910373
1	2991	349.191879044143	0.342589605351
1	2999	349.670178107028	0.342589605351
1	3005	350.13388173275	0.342589605351
1	3014	352.415775880523	0.342589605351
1	3020	352.758365485874	0.373719720108
1	3026	354.146947837285	0.342589605351
1	3035	355.025677278405	0.342589605351
1	3039	355.368266883756	0.349377355089
1	3046	355.819896920641	0.342589605351
1	3052	356.334397743075	0.342589605351
1	3061	358.285711389268	0.342589605351
1	3067	358.628300994619	0.399368593637
1	3073	359.336273339357	0.342589605351
1	3082	361.01485621653	0.342589605351
1	3089	361.468676318595	0.342589605351
1	3094	362.045936176382	0.342589605351
1	3099	362.539310153987	0.342589605351
1	3104	363.552195582664	0.342589605351
1	3116	364.065460559043	0.349262538378
1	3126	364.955878000927	0.342589605351
1	3134	365.458888638645	0.342589605351
1	3144	366.002519871269	0.342589605351
1	3150	366.34510947662	0.382994067244
1	3160	368.15035867698	0.342589605351
1	3169	369.272837887473	0.342589605351
1	3175	369.84810554864	0.342589605351
1	3180	372.035297788521	0.342589605351
1	3185	372.551581795691	0.342589605351
1	3192	373.06379273743	0.342589605351
1	3200	374.076272037546	0.342589605351
1	3203	374.418861642897	0.390683795782
1	3208	375.255383476058	0.342589605351
1	3213	375.713653754473	0.342589605351
1	3218	376.31855162257	0.342589605351
1	3223	377.187730209467	0.342589605351
1	3228	378.292005838152	0.342589605351
1	3239	378.649688894303	0.342589605351
1	3249	379.039536812931	0.342589605351
1	3255	379.849296902377	0.342589605351
1	3262	381.63755512491	0.342589605351
1	3268	382.012744592651	0.342589605351
1	3275	382.442496281341	0.342589605351
1	3281	383.446108604953	0.342589605351
1	3286	383.882852405323	0.342589605351
1	3293	384.285443447854	0.342589605351
1	3296	384.628033053205	0.362553588359
1	3301	385.234365198217	0.342589605351
1	3306	385.757497111881	0.342589605351
1	3312	387.454220114191	0.342589605351
1	3317	388.234027277224	0.342589605351
1	3326	389.881400348418	0.342589605351
1	3333	390.658248488476	0.342589605351
1	3340	391.866744023892	0.342589605351
1	3348	392.416290264967	0.342589605351
1	3354	392.964544136761	0.342589605351
1	3361	393.445758533403	0.342589605351
1	3369	394.082955925492	0.342589605351
1	3379	394.614028276138	0.342589605351
1	3388	394.979792295763	0.342589605351
1	3394	396.293231587909	0.342589605351
1	3401	396.899385543729	0.342589605351
1	3407	398.092181933697	0.342589605351
1	3414	398.441089600479	0.342589605351
1	3420	399.084921810418	0.342589605351
1	3425	400.318993579646	0.342589605351
1	3430	400.75409439258	0.342589605351
1	3435	401.660367654154	0.342589605351
1	3442	402.683272797482	0.342589605351
1	3450	403.031529319057	0.342589605351
1	3455	403.374118924408	0.373624090175
1	3458	403.716708529759	0.367297480296
1	3469	404.148612794261	0.342589605351
1	3481	404.793486245604	0.342589605351
1	3490	405.155934515981	0.342589605351
1	3496	407.067352228746	0.342589605351
1	3501	407.433794063106	0.342589605351
1	3506	408.113292842023	0.342589605351
1	3511	408.753973012777	0.342589605351
1	3522	409.340870463221	0.342589605351
1	3527	409.683460068572	0.363940441251
1	3535	410.037272632468	0.342589605351
1	3541	410.524806023699	0.342589605351
1	3546	411.017157368043	0.342589605351
1	3553	411.422636373482	0.342589605351
1	3559	413.461088140347	0.342589605351
1	3570	414.536315335787	0.342589605351
1	3575	414.878904941138	0.370306161861
1	3580	415.394829144015	0.342589605351
1	3587	415.933204019908	0.342589605351
1	3595	416.812539716252	0.342589605351
1	3603	418.625432986928	0.342589605351
1	3611	419.200653808821	0.342589605351
1	3617	420.349087006798	0.342589605351
1	3624	421.353900234679	0.342589605351
1	3632	421.967272406587	0.342589605351
1	3638	422.665285137378	0.342589605351
1	3647	423.024257546715	0.342589605351
1	3654	423.463500231055	0.342589605351
1	3663	424.308918344359	0.342589605351
1	3670	424.99025822294	0.342589605351
1	3677	425.688965599371	0.342589605351
1	3683	427.291392857006	0.342589605351
1	3690	427.991522251862	0.342589605351
1	3698	428.698330532841	0.342589605351
1	3704	429.631788058694	0.342589605351
1	3711	430.036979221935	0.342589605351
1	3719	430.74945419604	0.342589605351
1	3725	431.738708077923	0.342589605351
1	3738	432.518959570529	0.342589605351
1	3747	433.07050332191	0.342589605351
1	3755	433.618392705859	0.342589605351
1	3763	434.354686682683	0.342589605351
1	3766	434.697276288034	0.355509141948
1	3775	436.299072960786	0.342589605351
1	3782	436.654725166977	0.342589605351
1	3789	437.650859682053	0.342589605351
1	3795	438.171467550075	0.342589605351
1	3802	439.827309655025	0.342589605351
1	3805	440.169899260376	0.343317832367
1	3810	440.687235855412	0.342589605351
1	3817	441.407923397589	0.342589605351
1	3827	443.843899046616	0.342589605351
1	3837	444.186488651967	0.370117716661
1	3845	444.626570825416	0.342589605351
1	3852	445.014124832402	0.342589605351
1	3857	445.356714437753	0.402290756866
1	3863	445.775726615382	0.342589605351
1	3868	446.83495872135	0.342589605351
1	3873	448.334137203053	0.342589605351
1	3878	448.926819465866	0.342589605351
1	3885	449.496075867417	0.342589605351
1	3891	449.942009488175	0.342589605351
1	3896	450.433719304052	0.342589605351
1	3901	451.179595175941	0.342589605351
1	3908	451.746720318112	0.342589605351
1	3914	452.356513393482	0.342589605351
1	3921	452.824498012116	0.342589605351
1	3924	453.167087617467	0.394066443645
1	3937	454.216717657653	0.342589605351
1	3944	455.153758940847	0.342589605351
1	3951	455.712345599529	0.342589605351
1	3957	456.064620622954	0.342589605351
1	3964	458.340859749558	0.342589605351
1	3970	459.107277907557	0.342589605351
1	3977	461.509900143194	0.342589605351
1	3985	462.007380853162	0.342589605351
1	3993	462.873988726168	0.342589605351
1	4001	463.598708280701	0.342589605351
1	4004	463.941297886052	0.393361187174
1	4009	464.64211073538	0.342589605351
1	4014	465.286296221425	0.342589605351
1	4019	465.663646426437	0.342589605351
1	4024	466.022138019846	0.342589605351
1	4033	467.047832322291	0.342589605351
1	4042	468.324590425708	0.342589605351
1	4052	469.131555163826	0.342589605351
1	4063	469.641021953183	0.342589605351
1	4072	470.757768797703	0.342589605351
1	4078	471.525195097894	0.342589605351
1	4083	472.118830019295	0.342589605351
1	4090	472.880771840866	0.342589605351
1	4100	474.124517449024	0.342589605351
1	4107	475.474764593782	0.342589605351
1	4112	476.037289944863	0.342589605351
1	4119	476.615925369926	0.342589605351
1	4128	476.958514975277	0.388198472621
1	4136	478.342161080077	0.342589605351
1	4147	478.927529371652	0.342589605351
1	4156	480.915919847012	0.342589605351
1	4161	483.157404328877	0.342589605351
1	4168	483.865433519119	0.342589605351
1	4174	484.846130154687	0.342589605351
1	4179	485.332083201508	0.342589605351
1	4184	485.882877868917	0.342589605351
1	4191	487.152948783005	0.342589605351
1	4199	488.17445561742	0.342589605351
1	4205	490.53562828744	0.342589605351
1	4212	491.104631143846	0.342589605351
1	4219	491.447220749197	0.34649126413
1	4225	491.789810354548	0.374936177468
1	4230	492.132399959899	0.385515960134
1	4236	493.158893129944	0.342589605351
1	4241	495.216598958029	0.342589605351
1	4248	495.840756038361	0.342589605351
1	4254	496.730308389926	0.342589605351
1	4259	497.472152961917	0.342589605351
1	4266	498.089975769351	0.342589605351
1	4272	499.011575173167	0.342589605351
1	4279	499.705562953179	0.342589605351
1	4287	502.453490402214	0.342589605351
1	4295	503.036303986041	0.342589605351
1	4301	503.636031737068	0.342589605351
1	4306	504.623852667965	0.342589605351
1	4313	506.045123251437	0.342589605351
1	4321	507.035995028996	0.342589605351
1	4329	507.874235724117	0.342589605351
1	4332	508.216825329468	0.395870512643
1	4337	508.629659446862	0.342589605351
1	4345	509.155500281373	0.342589605351
1	4355	509.570650455786	0.342589605351
1	4364	510.765146870183	0.342589605351
1	4369	511.107736475534	0.360540161198
1	4375	512.485237484639	0.342589605351
1	4384	512.915142054193	0.342589605351
1	4393	513.642920748691	0.342589605351
1	4403	514.190553784114	0.342589605351
1	4414	514.540420023271	0.342589605351
1	4418	514.883009628622	0.35531628984
1	4425	515.447205602534	0.342589605351
1	4431	515.802973311401	0.342589605351
1	4436	516.457366999354	0.342589605351
1	4441	517.801357452217	0.342589605351
1	4448	518.320046224747	0.342589605351
1	4458	519.007685865815	0.342589605351
1	4464	519.350275471166	0.34798351815
1	4472	520.143718521826	0.342589605351
1	4477	520.486308127177	0.376668716423
1	4483	522.867439714349	0.342589605351
1	4490	523.608008391925	0.342589605351
1	4496	524.749300714822	0.342589605351
1	4503	525.125909467893	0.342589605351
1	4513	525.941971591147	0.342589605351
1	4522	526.582544236066	0.342589605351
1	4529	526.925133841417	0.345587024584
1	4536	527.785359878586	0.342589605351
1	4541	528.892335572994	0.342589605351
1	4548	530.326989161738	0.342589605351
1	4554	531.221774942234	0.342589605351
1	4560	532.261596931074	0.342589605351
1	4565	532.790138748184	0.342589605351
1	4572	533.278093184161	0.342589605351
1	4582	533.752104874497	0.342589605351
1	4591	534.550979839357	0.342589605351
1	4599	535.136400011808	0.342589605351
1	4605	535.754062118481	0.342589605351
1	4612	536.82283929384	0.342589605351
1	4620	537.254700971326	0.342589605351
1	4626	537.706471981607	0.342589605351
1	4633	538.805700611379	0.342589605351
1	4645	540.349730928372	0.342589605351
1	4650	540.692320533723	0.402345473363
1	4659	541.15532578319	0.342589605351
1	4663	541.497915388541	0.352531758385
1	4668	541.955934676127	0.342589605351
1	4673	542.77644426177	0.342589605351
1	4680	543.321207146006	0.342589605351
1	4690	543.89233760583	0.342589605351
1	4694	544.234927211181	0.385502766584
1	4699	544.833213671487	0.342589605351
1	4704	545.503319829922	0.342589605351
1	4711	546.285503274329	0.342589605351
1	4719	547.329575693649	0.342589605351
1	4727	548.691445047758	0.342589605351
1	4733	549.080883985935	0.342589605351
1	4740	549.45110425859	0.342589605351
1	4746	550.085776855104	0.342589605351
1	4751	550.797605393107	0.342589605351
1	4756	551.168000955204	0.342589605351
1	4764	551.796076824865	0.342589605351
1	4770	553.378646007286	0.342589605351
1	4775	554.669631161119	0.342589605351
1	4780	557.26752072947	0.342589605351
1	4787	557.748105158648	0.342589605351
1	4795	558.284801880723	0.342589605351
1	4801	560.065538345703	0.342589605351
1	4808	560.81411883546	0.342589605351
1	4814	561.983816647093	0.342589605351
1	4823	562.483683547954	0.342589605351
1	4827	562.826273153305	0.343859555794
1	4834	563.25526285636	0.342589605351
1	4839	563.597852461711	0.370351898007
1	4845	564.099399751061	0.342589605351
1	4852	564.523195413446	0.342589605351
1	4858	566.453407513834	0.342589605351
1	4863	567.142941408604	0.342589605351
1	4870	567.703397219896	0.342589605351
1	4880	570.158106346939	0.342589605351
1	4887	570.53158946611	0.342589605351
1	4892	571.451200230726	0.342589605351
1	4899	573.040082287552	0.342589605351
1	4905	573.450345039639	0.342589605351
1	4910	573.848967659307	0.342589605351
1	4917	574.243757294842	0.342589605351
1	4927	574.871932236694	0.342589605351
1	4933	575.214521842045	0.388515283962
1	4943	575.700504062691	0.342589605351
1	4954	576.151791824214	0.342589605351
1	4958	576.494381429565	0.376606304709
1	4964	577.15760132506	0.342589605351
1	4969	578.562996865082	0.342589605351
1	4976	579.057782606549	0.342589605351
1	4981	579.4003722119	0.396287813464
1	4989	580.065751173333	0.342589605351
1	4997	580.957465566195	0.342589605351
1	5007	581.474570134369	0.342589605351
1	5014	581.985691867208	0.342589605351
1	5019	582.535436149277	0.342589605351
1	5024	584.062020040594	0.342589605351
1	5033	584.54410257417	0.342589605351
1	5040	585.284867666287	0.342589605351
1	5047	586.546552307986	0.342589605351
1	5052	586.889141913337	0.388143993924
1	5058	588.537071470983	0.342589605351
1	5063	590.147756546093	0.342589605351
1	5068	590.846171763349	0.342589605351
1	5073	591.293984031028	0.342589605351
1	5078	591.72551738905	0.342589605351
1	5085	592.19897971111	0.342589605351
1	5091	593.569004703831	0.342589605351
1	5096	593.929270485633	0.342589605351
1	5101	594.870073848762	0.342589605351
1	5106	595.67501762335	0.342589605351
1	5113	596.040550915871	0.342589605351
1	5119	597.225824834214	0.342589605351
1	5126	598.172035500393	0.342589605351
1	5132	599.240607010838	0.342589605351
1	5139	599.751337358569	0.342589605351
1	5144	600.09392696392	0.38951162713
1	5151	602.16134492939	0.342589605351
1	5156	603.170747994254	0.342589605351
1	5163	603.83918960159	0.342589605351
1	5171	604.394683721581	0.342589605351
1	5177	604.936438602897	0.342589605351
1	5184	605.311069857775	0.342589605351
1	5194	605.800751271565	0.342589605351
1	5201	606.296108655516	0.342589605351
1	5206	606.976232134394	0.342589605351
1	5211	607.819260681054	0.342589605351
1	5216	608.27837695726	0.342589605351
1	5223	609.432195913114	0.342589605351
1	5231	610.458960593108	0.342589605351
1	5239	610.833516227379	0.342589605351
1	5242	611.17610583273	0.387258237645
1	5247	611.838412140557	0.342589605351
1	5252	612.393546577109	0.342589605351
1	5259	612.935921855179	0.342589605351
1	5262	613.27851146053	0.385208167203
1	5267	613.900254480779	0.342589605351
1	5272	614.361779654637	0.342589605351
1	5279	615.427482440068	0.342589605351
1	5285	615.875394334743	0.342589605351
1	5290	616.650453754384	0.342589605351
1	5295	617.466315347793	0.342589605351
1	5300	618.149306724132	0.342589605351
1	5305	620.366162536507	0.342589605351
1	5310	620.944356889362	0.342589605351
1	5315	621.750871838354	0.342589605351
1	5322	622.554384997305	0.342589605351
1	5331	623.243596136887	0.342589605351
1	5337	624.201420664279	0.342589605351
1	5342	625.108756704655	0.342589605351
1	5347	625.711313730711	0.342589605351
1	5354	626.337868904769	0.342589605351
1	5360	627.996916328185	0.342589605351
1	5369	628.459763844284	0.342589605351
1	5380	628.978673792564	0.342589605351
1	5389	629.799677824158	0.342589605351
1	5392	630.142267429509	0.396662196483
1	5403	631.577290787427	0.342589605351
1	5408	631.919880392778	0.39653895928
1	5413	632.434305881156	0.342589605351
1	5420	633.196128751718	0.342589605351
1	5426	633.750071589461	0.342589605351
1	5433	634.808206803715	0.342589605351
1	5443	635.228921403878	0.342589605351
1	5450	636.47069411681	0.342589605351
1	5457	637.042450068013	0.342589605351
1	5462	637.385039673364	0.368947430815
1	5478	637.881101233667	0.342589605351
1	5487	638.223690839018	0.360294874053
1	5493	639.257743549272	0.342589605351
1	5498	639.848826773488	0.342589605351
1	5509	640.570541652473	0.342589605351
1	5514	640.913131257824	0.399937292916
1	5527	641.84547206581	0.342589605351
1	5533	642.188061671161	0.402719830557
1	5538	643.087919078334	0.342589605351
1	5547	643.569544006176	0.342589605351
1	5558	644.962188690687	0.342589605351
1	5565	646.015018968707	0.342589605351
1	5570	646.357608574058	0.397302896175
1	5580	647.532483337283	0.342589605351
1	5589	649.993336805904	0.342589605351
1	5594	650.335926411255	0.390940631869
1	5597	650.678516016606	0.384237570865
1	5604	651.291979728095	0.342589605351
1	5607	651.634569333446	0.374577981789
1	5614	653.256465642328	0.342589605351
1	5620	653.661747071628	0.342589605351
1	5627	654.088017764671	0.342589605351
1	5635	655.497323886099	0.342589605351
1	5645	656.361158361608	0.342589605351
1	5654	657.308100510585	0.342589605351
1	5657	657.650690115936	0.356981157632
1	5662	658.39194170753	0.342589605351
1	5671	660.096565591871	0.342589605351
1	5678	660.78599833892	0.342589605351
1	5685	661.591202227275	0.342589605351
1	5699	662.508629763989	0.342589605351
1	5705	662.85121936934	0.384667553758
1	5710	663.486439096914	0.342589605351
1	5715	664.047613408563	0.342589605351
1	5722	664.858859992462	0.342589605351
1	5730	665.314354503939	0.342589605351
1	5733	665.65694410929	0.385811368047
1	5738	666.402237672543	0.342589605351
[...]
8	3534	410.037272632468	0.08424079237
8	3552	411.422636373482	0.139061639443
8	3569	414.536315335787	0.143677420559
8	3571	414.536315335787	0.11708478794
8	3572	414.536315335787	0.02771655651
8	3586	415.933204019908	0.259089687816
8	3594	416.812539716252	0.114138458278
8	3602	418.625432986928	0.305617841455
8	3610	419.200653808821	0.32511481861
8	3623	421.353900234679	0.294072183126
8	3631	421.967272406587	0.131667207396
8	3646	423.024257546715	0.257812434155
8	3648	423.024257546715	0.071098189828
8	3662	424.308918344359	0.18099403401
8	3664	424.308918344359	0.130587452792
8	3676	425.688965599371	0.153669141268
8	3689	427.991522251862	0.195286107174
8	3697	428.698330532841	0.197706297974
8	3710	430.036979221935	0.28228642938
8	3718	430.74945419604	0.093554882933
8	3728	431.909383448951	0.156419443958
8	3737	432.518959570529	0.237291155219
8	3739	432.518959570529	0.106141281271
8	3746	433.07050332191	0.126538985249
8	3754	433.618392705859	0.319478728376
8	3762	434.354686682683	0.012919536597
8	3774	436.299072960786	0.27769586856
8	3776	436.299072960786	0.259454687494
8	3788	437.650859682053	0.270760707817
8	3801	439.827309655025	0.000728227016
8	3816	441.407923397589	0.265121507182
8	3826	443.843899046616	0.077833324603
8	3828	443.843899046616	0.02752811131
8	3836	444.186488651967	0.221178522021
8	3838	444.186488651967	0.147094020745
8	3839	444.186488651967	0.085646686288
8	3851	445.014124832402	0.059701151515
8	3856	445.356714437753	0.095333692983
8	3884	449.496075867417	0.064611642397
8	3907	451.746720318112	0.173240044393
8	3920	452.824498012116	0.051476838294
8	3927	453.337762988495	0.144557299482
8	3936	454.216717657653	0.255640068004
8	3938	454.216717657653	0.143086038262
8	3950	455.712345599529	0.111827420131
8	3963	458.340859749558	0.199392456662
8	3976	461.509900143194	0.232994426458
8	3984	462.007380853162	0.125461741383
8	3992	462.873988726168	0.233499170066
8	4000	463.598708280701	0.050771581823
8	4032	467.047832322291	0.17921232671
8	4034	467.047832322291	0.120242528148
8	4041	468.324590425708	0.128764063078
8	4051	469.131555163826	0.317529002448
8	4053	469.131555163826	0.135793633997
8	4062	469.641021953183	0.20517129176
8	4064	469.641021953183	0.072328857495
8	4071	470.757768797703	0.089813338429
8	4089	472.880771840866	0.27891870803
8	4099	474.124517449024	0.300373230437
8	4101	474.124517449024	0.077930444173
8	4118	476.615925369926	0.04560886727
8	4127	476.958514975277	0.256818917096
8	4129	476.958514975277	0.248679164172
8	4130	476.958514975277	0.172337392162
8	4148	479.09820474268	0.389970326082
8	4149	479.09820474268	0.302381478058
8	4150	479.09820474268	0.220501844971
8	4167	483.865433519119	0.148330602381
8	4190	487.152948783005	0.257218557459
8	4198	488.17445561742	0.223223141314
8	4211	491.104631143846	0.003901658779
8	4218	491.447220749197	0.182151273538
8	4220	491.447220749197	0.032346572117
8	4224	491.789810354548	0.042926354783
8	4229	492.132399959899	0.269444390827
8	4247	495.840756038361	0.266543720423
8	4265	498.089975769351	0.17135235916
8	4278	499.705562953179	0.16139377755
8	4286	502.453490402214	0.190773426579
8	4294	503.036303986041	0.081577325228
8	4312	506.045123251437	0.106313284288
8	4320	507.035995028996	0.224141876056
8	4328	507.874235724117	0.053280907292
8	4344	509.155500281373	0.125090491695
8	4354	509.570650455786	0.121729647749
8	4356	509.570650455786	0.104085114293
8	4363	510.765146870183	0.017950555847
8	4368	511.107736475534	0.138914833725
8	4383	512.915142054193	0.324039325638
8	4385	512.915142054193	0.302338162289
8	4392	513.642920748691	0.271851426884
8	4402	514.190553784114	0.279969259953
8	4404	514.190553784114	0.181351810813
8	4413	514.540420023271	0.237988705477
8	4415	514.540420023271	0.012726684489
8	4424	515.447205602534	0.075502259108
8	4447	518.320046224747	0.213313601633
8	4457	519.007685865815	0.146797656112
8	4459	519.007685865815	0.005393912799
8	4463	519.350275471166	0.199018825202
8	4471	520.143718521826	0.034079111072
8	4476	520.486308127177	0.25424509163
8	4489	523.608008391925	0.065391959681
8	4502	525.125909467893	0.127051248026
8	4512	525.941971591147	0.236002886987
8	4514	525.941971591147	0.229396935726
8	4521	526.582544236066	0.002997419233
8	4528	526.925133841417	0.240327282854
8	4530	526.925133841417	0.156174770123
8	4547	530.326989161738	0.233884908958
8	4571	533.278093184161	0.338003409591
8	4581	533.752104874497	0.279861658305
8	4583	533.752104874497	0.264105350504
8	4590	534.550979839357	0.189113231208
8	4598	535.136400011808	0.199785755711
8	4611	536.82283929384	0.282314839243
8	4619	537.254700971326	0.334858757148
8	4632	538.805700611379	0.21249534161
8	4644	540.349730928372	0.317987256919
8	4646	540.349730928372	0.286026544907
8	4647	540.349730928372	0.059755868012
8	4658	541.15532578319	0.147816471177
8	4660	541.15532578319	0.009942153034
8	4679	543.321207146006	0.085588422451
8	4689	543.89233760583	0.146029937643
8	4691	543.89233760583	0.042913161233
8	4710	546.285503274329	0.254139829126
8	4718	547.329575693649	0.268394761974
8	4726	548.691445047758	0.165952881295
8	4739	549.45110425859	0.091398996472
8	4763	551.796076824865	0.122522969926
8	4786	557.748105158648	0.321143075148
8	4794	558.284801880723	0.285945950017
8	4807	560.81411883546	0.222683446613
8	4822	562.483683547954	0.297446490683
8	4824	562.483683547954	0.001269950443
8	4833	563.25526285636	0.027762292656
8	4838	563.597852461711	0.095054204362
8	4851	564.523195413446	0.099984038035
8	4869	567.703397219896	0.176716513724
8	4879	570.158106346939	0.252881372059
8	4881	570.158106346939	0.083352903151
8	4898	573.040082287552	0.187334284838
8	4916	574.243757294842	0.170076064014
8	4926	574.871932236694	0.276772075981
8	4928	574.871932236694	0.045925678611
8	4932	575.214521842045	0.287338751598
8	4942	575.700504062691	0.182674908301
8	4944	575.700504062691	0.173139191099
8	4953	576.151791824214	0.094348479884
8	4955	576.151791824214	0.034016699358
8	4975	579.057782606549	0.053698208113
8	4980	579.4003722119	0.24055493838
8	4988	580.065751173333	0.17482885686
8	4996	580.957465566195	0.07116841568
8	5006	581.474570134369	0.126931044586
8	5008	581.474570134369	0.065568878058
8	5032	584.54410257417	0.288069416394
8	5034	584.54410257417	0.187693357693
8	5046	586.546552307986	0.045554388573
8	5051	586.889141913337	0.250103290341
8	5084	592.19897971111	0.291082921279
8	5112	596.040550915871	0.090565058171
8	5125	598.172035500393	0.063290968172
8	5138	599.751337358569	0.046922021779
8	5145	600.264602334948	0.436020177357
8	5162	603.83918960159	0.280608190827
8	5170	604.394683721581	0.323462219686
8	5183	605.311069857775	0.243916448579
8	5193	605.800751271565	0.305279167057
8	5195	605.800751271565	0.12976418269
8	5222	609.432195913114	0.242828631344
8	5230	610.458960593108	0.203406152808
8	5238	610.833516227379	0.044668632294
8	5258	612.935921855179	0.042618561852
8	5278	615.427482440068	0.189201268549
8	5323	622.725060368333	0.453707991833
8	5330	623.243596136887	0.277203824783
8	5353	626.337868904769	0.282649018226
8	5368	628.459763844284	0.225189525492
8	5370	628.459763844284	0.209152338052
8	5379	628.978673792564	0.341806991072
8	5381	628.978673792564	0.168773324598
8	5388	629.799677824158	0.054072591132
8	5402	631.577290787427	0.234720533484
8	5404	631.577290787427	0.09712272821
8	5405	631.577290787427	0.053949353929
8	5419	633.196128751718	0.233074894474
8	5432	634.808206803715	0.239714853203
8	5442	635.228921403878	0.310458691739
8	5444	635.228921403878	0.136301692614
8	5456	637.042450068013	0.026357825464
8	5461	637.385039673364	0.255718328166
8	5477	637.881101233667	0.319675096412
8	5479	637.881101233667	0.300388134335
8	5480	637.881101233667	0.227914864417
8	5481	637.881101233667	0.089234186818
8	5482	637.881101233667	0.017705268702
8	5486	638.223690839018	0.14564238163
8	5508	640.570541652473	0.167603433125
8	5510	640.570541652473	0.103385317786
8	5511	640.570541652473	0.057347687565
8	5526	641.84547206581	0.143868359777
8	5528	641.84547206581	0.095233312638
8	5529	641.84547206581	0.064224397522
8	5530	641.84547206581	0.060130225206
8	5550	643.740219377204	0.370284519465
8	5551	643.740219377204	0.322945755707
8	5552	643.740219377204	0.091072578513
8	5564	646.015018968707	0.054713290824
8	5569	646.357608574058	0.159616557762
8	5579	647.532483337283	0.280594653636
8	5581	647.532483337283	0.189860997381
8	5588	649.993336805904	0.048351026518
8	5593	650.335926411255	0.041647965514
8	5603	651.291979728095	0.031988376438
8	5613	653.256465642328	0.077023010361
8	5626	654.088017764671	0.152332129984
8	5634	655.497323886099	0.14027203162
8	5644	656.361158361608	0.340820460597
8	5646	656.361158361608	0.086032357424
8	5653	657.308100510585	0.014391552281
8	5670	660.096565591871	0.185620974005
8	5672	660.096565591871	0.099609492899
8	5684	661.591202227275	0.301487768427
8	5698	662.508629763989	0.288793263842
8	5700	662.508629763989	0.128702438816
8	5701	662.508629763989	0.123860417082
8	5702	662.508629763989	0.042077948407
8	5721	664.858859992462	0.315512588686
8	5729	665.314354503939	0.043221762696
8	5744	666.788946486468	0.015663756377
8	5770	670.475116795507	0.190434239629
8	5783	672.279577504074	0.11577479971
8	5810	675.539152778293	0.238933559218
8	5812	675.539152778293	0.210767463556
8	5813	675.539152778293	0.126407101926
8	5822	676.269829034387	0.116312760514
8	5824	676.269829034387	0.081046526986
8	5833	676.873018322841	0.217773159779
8	5835	676.873018322841	0.192304545326
8	5852	678.855942402408	0.18624147963
8	5870	681.178534188235	0.15604907149
8	5878	681.596225045548	0.250276081258
8	5888	682.855852605627	0.138098323867
8	5890	682.855852605627	0.106393741339
8	5904	684.215622015013	0.15009738027
8	5906	684.215622015013	0.122831977966
8	5915	684.794760902907	0.339233694471
8	5917	684.794760902907	0.17617777528
8	5924	685.744387900183	0.026792302846
8	5931	686.086977505534	0.300529455644
8	5933	686.086977505534	0.290010384146
8	5940	686.482933475768	0.328087893221
8	5950	687.206477362879	0.086659261868
8	5952	687.206477362879	0.003972751183
8	5961	687.898772689334	0.114904123227
8	5975	689.453687797535	0.294496544218
8	5988	690.378489385966	0.1508807818
8	6001	692.748905614263	0.108838448643
8	6011	693.213345629317	0.160086241401
8	6013	693.213345629317	0.053128382077
8	6027	694.631290604883	0.045120296344
8	6042	696.353529177583	0.185414704374
8	6055	697.542623921159	0.255910691203
8	6063	699.324688021879	0.221988741834
8	6071	699.71144006028	0.182689142458
8	6079	702.001753620482	0.108939844587
8	6097	703.317929126155	0.021874181772
8	6112	705.927027623438	0.105781191582
8	6134	707.250438231721	0.229334456236
8	6136	707.250438231721	0.137575349658
8	6137	707.250438231721	0.096119295813
8	6144	708.184904209402	0.199731139447
8	6157	709.461945332803	0.337401773231
8	6167	710.060584131998	0.126127673145
8	6194	713.10830284753	0.277418072563
8	6207	715.378651723201	0.096294112375
8	6215	716.019873750236	0.073514128361
8	6223	717.086150784663	0.13350780513
8	6238	718.219851241837	0.290793423147
8	6240	718.219851241837	0.134937921854
8	6266	721.829923515627	0.253294725845
8	6268	721.829923515627	0.209857092291
8	6269	721.829923515627	0.003921469807
8	6273	722.172513120978	0.013593841017
8	6285	724.212079330027	0.333958527492
8	6287	724.212079330027	0.067811939013
8	6299	725.42483678793	0.139556216789
8	6307	726.231933789499	0.144906801631
8	6315	727.228562546523	0.151128960857
8	6328	729.220878806001	0.113339410232
8	6338	729.789988527902	0.133414233056
8	6340	729.789988527902	0.03426276149
8	6354	731.169298473916	0.005398374694
8	6375	735.420069373113	0.174627258748
8	6385	735.895794765608	0.29534129635
8	6387	735.895794765608	0.248422305549
8	6409	741.871815013386	0.008421215146
8	6419	742.652566328262	0.069129769737
8	6427	743.003159769444	0.224009004056
8	6435	743.434086715553	0.291111039724
8	6443	744.160722372653	0.212211453072
8	6456	745.927198790236	0.15343450971
8	6469	747.065353437982	0.330629237087
8	6487	749.682541157437	0.186984029707
8	6495	750.326285367633	0.172450620855
8	6525	757.458159732358	0.271429826799
8	6527	757.458159732358	0.147178989747
8	6551	759.849031968213	0.284614140374
8	6553	759.849031968213	0.256516423232
8	6562	760.569623228895	0.459073896782
8	6569	761.141577523554	0.113540229502
8	6599	763.525409332499	0.256370952694
8	6601	763.525409332499	0.255860277746
8	6608	764.133830938279	0.173948253034
8	6618	765.599363364075	0.269102494724
8	6620	765.599363364075	0.122195573265
8	6636	769.236492414874	0.303315353221
8	6638	769.236492414874	0.30019786803
8	6639	769.236492414874	0.272019174145
8	6646	771.173805187701	0.130946884835
8	6654	771.715276872495	0.3119434574
8	6681	774.530192003421	0.282161000106
8	6683	774.530192003421	0.26456643732
8	6684	774.530192003421	0.211570188575
8	6693	775.632325737144	0.321449486448
8	6695	775.632325737144	0.113089474434
8	6702	776.384140369308	0.052389470196
8	6707	776.726729974659	0.107820084244
8	6715	777.561200546597	0.098507666174
8	6727	778.757814007965	0.310433062589
8	6729	778.757814007965	0.178308807104
8	6730	778.757814007965	0.123698892992
8	6742	779.99770784799	0.096774107737
8	6757	781.558323359105	0.053476325856
8	6766	781.900912964456	0.352870589507
8	6768	781.900912964456	0.306007780826
8	6769	781.900912964456	0.209278207295
8	6770	781.900912964456	0.060150736183
8	6797	784.740408336475	0.512113376915
8	6798	784.740408336475	0.504401259072
8	6799	784.740408336475	0.44379445639
8	6800	784.740408336475	0.14587728885
8	6819	786.904423588927	0.165907967269
8	6821	786.904423588927	0.003715816428
8	6835	788.679454632237	0.027181651756
8	6840	789.022044237588	0.291914983512
8	6873	795.044791295762	0.103612376012
8	6881	798.553936900672	0.200430248985
8	6889	798.957956219297	0.119458787448
8	6909	800.776102159125	0.262987771759
8	6911	800.776102159125	0.006613505555
8	6925	802.075169372438	0.202524820225
8	6933	804.177867166933	0.094948577469
8	6941	805.127995734382	0.335073095303
8	6954	807.037876033897	0.105191772846
8	6967	807.962136898121	0.234473646375
8	6993	813.059241398706	0.293216501857
8	6995	813.059241398706	0.047924097726
8	7001	813.401831004057	0.135014905731
8	7003	813.401831004057	0.080310306689
8	7032	816.716560595951	0.24598860656
8	7034	816.716560595951	0.225118412645
8	7050	818.061102355643	0.30961748166
8	7052	818.061102355643	0.289656539976
8	7053	818.061102355643	0.110098576623
8	7065	819.180508806814	0.329674721583
8	7073	819.576268465278	0.297812947232
8	7081	820.321061115341	0.160357757755
8	7096	822.288963823884	0.097702465063
8	7098	822.288963823884	0.062661245463
8	7105	822.895559909283	0.024894819686
8	7110	823.238149514634	0.198167723726
8	7122	825.123522598607	0.246218173156
8	7124	825.123522598607	0.168165002832
8	7125	825.123522598607	0.083910247063
8	7137	826.348926227994	0.238286345813
8	7192	835.552912509667	0.110893160084
8	7209	837.823324007538	0.07115491952
8	7219	838.664828685756	0.243489363072
8	7221	838.664828685756	0.188284691208
8	7228	839.229458070131	0.081165848843
8	7246	842.099642923706	0.268294066121
8	7254	843.246381084467	0.146505890562
8	7262	844.182684044675	0.270916240034
8	7275	845.533293242208	0.090551205228
8	7285	847.265502390349	0.271730226903
8	7287	847.265502390349	0.119033946086
8	7311	851.970822710487	0.248258737611
8	7313	851.970822710487	0.20622933359
8	7325	853.331427329948	0.12108458526
8	7333	854.283854593633	0.22554740038
8	7343	854.873991076387	0.297197735276
8	7345	854.873991076387	0.275546524044
8	7352	856.762208492817	0.025647517963
8	7357	857.104798098168	0.157591973219
8	7365	857.880663713928	0.176621181622
8	7373	858.500279780858	0.173447364194
8	7381	860.322577419392	0.254973566451
8	7396	861.7347029498	0.250384026086
8	7398	861.7347029498	0.183906334154
8	7416	865.159411860279	0.237947713763
8	7434	867.137775357404	0.038749396863
8	7449	869.037035864122	0.023855142849
8	7464	871.865504019229	0.319911493334
8	7476	872.526397484408	0.210772721252
8	7478	872.526397484408	0.193672266484
8	7479	872.526397484408	0.049091576998
8	7483	872.868987089759	0.300497805924
8	7491	873.368960942487	0.001790285232
8	7500	873.711550547838	0.19517606567
8	7502	873.711550547838	0.117523710724
8	7503	873.711550547838	0.061714102131
8	7530	877.908879021748	0.148772893801
8	7548	879.957487284886	0.269860094682
8	7566	881.282636686994	0.106790660457
8	7579	883.476070199974	0.332712813801
8	7592	884.887354371561	0.043584788304
8	7603	885.40061934794	0.455457333069
8	7604	885.40061934794	0.306466448903
8	7605	885.40061934794	0.07452027578
8	7612	886.464640998431	0.293856234403
8	7620	886.919431042947	0.074282023939
8	7632	888.28789816941	0.249736798129
8	7634	888.28789816941	0.117758833334
8	7635	888.28789816941	0.096520644753
8	7642	888.861184884372	0.281319157671
8	7652	889.468864723255	0.214895837568
8	7654	889.468864723255	0.159311467068
8	7666	890.511074361977	0.050404958435
8	7671	890.853663967328	0.269035503726
8	7706	896.800840886046	0.214481534588
8	7708	896.800840886046	0.079221535956
8	7719	897.384067979102	0.151670857881
8	7721	897.384067979102	0.08411909114
8	7722	897.384067979102	0.031047418934
8	7736	898.976293209405	0.070677735856
8	7754	900.820372193718	0.080690097947
8	7762	902.767231793779	0.050611006908
8	7769	903.10982139913	0.264132142411
8	7771	903.10982139913	0.140354691249
8	7793	906.074319060136	0.232548476624
8	7801	906.836190305098	0.175206001988
8	7816	908.481804742607	0.129034774199
8	7828	910.400993972478	0.142542435477
8	7838	910.7467816348	0.0307666546
8	7843	911.089371240151	0.347224317541
8	7845	911.089371240151	0.121789474281
8	7872	914.916377239015	0.010196669873
8	7879	915.258966844366	0.234065403639
8	7881	915.258966844366	0.058106881439
8	7885	915.601556449717	0.235974099354
8	7893	916.432325271524	0.069442230856
8	7916	919.812268246136	0.236667518827
8	7934	921.352811628647	0.166254404924
8	7957	924.051328330355	0.130431984123
8	7975	925.786089108131	0.276355750806
8	7993	927.89735583216	0.335509608136
8	8022	931.975562569773	0.055154001713
8	8027	932.318152175124	0.016934888311
8	8042	933.823792366996	0.31507427008
8	8062	935.805631655683	0.189971133816
8	8064	935.805631655683	0.186471041257
8	8076	936.854278367378	0.064588488451
8	8084	937.611810132064	0.083529692388
8	8094	938.324914641407	0.031138470102
8	8099	938.667504246758	0.359245444915
8	8101	938.667504246758	0.176688567186
8	8115	940.235787100665	0.320775452915
8	8117	940.235787100665	0.290385736576
8	8124	940.831956890006	0.337189318285
8	8139	942.796842294587	0.300415615322
8	8141	942.796842294587	0.182680259003
8	8165	945.018204088657	0.200264293977
8	8167	945.018204088657	0.0914801608
8	8184	947.101550928408	0.22390089415
8	8192	948.166740501997	0.180694484183
8	8206	949.843978000331	0.001209932704
8	8221	953.474496173933	0.32577099436
8	8229	954.526595352509	0.328930935735
8	8247	959.184011675925	0.231930811137
8	8260	960.526494822483	0.12791895681
8	8273	961.393094167668	0.062775867591
8	8301	964.725815259895	0.059893833287
8	8308	965.068404865246	0.324254080945
8	8310	965.068404865246	0.138582316748
8	8317	965.586580721172	0.134728863302
8	8325	965.936041508636	0.034051324861
8	8335	966.751138252317	0.189272347865
8	8355	969.33596510988	0.258875865153
8	8357	969.33596510988	0.254950897954
8	8364	970.577598256483	0.008336277229
8	8388	973.48962078545	0.389956423294
8	8389	973.48962078545	0.255256557128
8	8403	975.151886502471	0.309823587183
8	8405	975.151886502471	0.303492250169
8	8412	976.110725868397	0.159321749263
8	8420	976.716261512017	0.334471020384
8	8435	978.788889524075	0.201461633948
8	8437	978.788889524075	0.028589878489
8	8451	982.027568500031	0.058597715755
8	8466	984.270928216941	0.178500008051
8	8484	985.690040989936	0.025316300323
8	8489	986.032630595287	0.33589460172
8	8497	986.419108173996	0.228947184834
8	8510	988.811708801781	0.328474035905
8	8533	991.988990981214	0.104336320011
8	8541	992.795657816631	0.097829725806
8	8551	994.271476054652	0.32781658854
8	8553	994.271476054652	0.265391696515
8	8565	996.700895983719	0.295535235047
8	8587	999.104066630885	0.382904621774
8	8588	999.104066630885	0.295898030466

