version 2
run General-245-20240201-11:04:24-40057
attr configname General
attr datetime 20240201-11:04:24
attr experiment General
attr inifile main.ini
attr iterationvars "$0=1.2, $1=1.7, $2=30"
attr iterationvarsf 1.2,1.7,30-
attr measurement "$0=1.2, $1=1.7, $2=30"
attr network Rete
attr processid 40057
attr repetition 5
attr replication #5
attr resultdir results
attr runnumber 245
attr seedset 245
param Rete.lambda 1.2
param Rete.a 0.3s
param Rete.b 1.7s
param Rete.c 0.1s
param Rete.d 0.3s
param Rete.mu 3.0
param Rete.source2.interArrivalTime exponential(1s/lambda)
param Rete.source2.jobServiceTime exponential(1s/mu)
param Rete.source2.deadline uniform(a,b)
param Rete.server2.j 30
param Rete.server2.V uniform(c,d)

vector 0 Rete.passiveQueue queueLength:vector ETV
attr interpolationmode sample-hold
attr title "queue length, vector"
vector 1 Rete.sink lifeTime:vector ETV
attr interpolationmode none
attr title "lifetime of arrived jobs, vector"
attr unit s
vector 2 Rete.sink totalQueueingTime:vector ETV
attr interpolationmode none
attr title "the total time spent in queues by arrived jobs, vector"
attr unit s
vector 3 Rete.sink queuesVisited:vector ETV
attr interpolationmode none
attr title "the total number of queues visited by arrived jobs, vector"
vector 4 Rete.sink totalServiceTime:vector ETV
attr interpolationmode none
attr title "the total time spent  by arrived jobs, vector"
attr unit s
vector 5 Rete.sink totalDelayTime:vector ETV
attr interpolationmode none
attr title "the total time spent in delay nodes by arrived jobs, vector"
attr unit s
vector 6 Rete.sink delaysVisited:vector ETV
attr interpolationmode none
attr title "the total number of delays visited by arrived jobs, vector"
vector 7 Rete.sink generation:vector ETV
attr interpolationmode none
attr title "the generation of the arrived jobs, vector"
vector 8 Rete.passiveQueue queueingTime:vector ETV
attr interpolationmode none
attr title "queueing time at dequeue, vector"
attr unit s
0	0	0	0
0	120	23.135154244984	1
0	121	23.173305921406	0
0	166	33.608928969079	1
0	167	33.614257168043	0
0	181	34.702155256518	1
0	182	34.726026291308	0
0	261	52.321703588393	1
0	262	52.359075825164	0
0	303	58.05592217865	1
0	305	58.096419824601	2
0	307	58.112177384497	3
0	308	58.216590441797	2
0	310	58.256383963377	1
0	313	58.296177484957	0
0	427	81.242984721143	1
0	428	81.281445962117	0
0	659	121.111628490714	1
0	660	121.112027294463	0
0	739	135.26847163291	1
0	740	135.307780195201	0
0	756	138.398738469735	1
0	758	138.432704534544	2
0	759	138.52269295221	1
0	762	138.557577819232	2
0	763	138.56248647379	1
0	766	138.60227999537	0
0	805	142.803611173174	1
0	806	142.809755957605	0
0	971	168.851365169235	1
0	972	168.888419981161	0
0	986	170.694066606338	1
0	987	170.70429165891	0
0	1001	172.591863095269	1
0	1002	172.606426521835	0
0	1006	172.627045288966	1
0	1007	172.646220043415	0
0	1062	180.369427885794	1
0	1063	180.405843335744	0
0	1077	181.478861194812	1
0	1078	181.486062196663	0
0	1122	184.227052497761	1
0	1123	184.240071957709	0
0	1228	209.186604843149	1
0	1229	209.222716326229	0
0	1303	219.289238607612	1
0	1304	219.311742293256	0
0	1511	249.559406725678	1
0	1512	249.729763544635	0
0	1655	272.212360345452	1
0	1656	272.248211384623	0
0	1837	303.888092612067	1
0	1838	303.924748906692	0
0	1964	328.863550047762	1
0	1965	329.064465857804	0
0	2093	347.617488426406	1
0	2094	347.631994707154	0
0	2174	361.194224136207	1
0	2175	361.20209202519	0
0	2305	385.940273744412	1
0	2306	385.944245116253	0
0	2486	419.511971375641	1
0	2487	419.529379147045	0
0	2546	427.161082857864	1
0	2547	427.169449997393	0
0	2702	450.217677038169	1
0	2703	450.249554722465	0
0	2707	450.289285779858	1
0	2708	450.289348244045	0
0	2719	451.222405838712	1
0	2720	451.401884558996	0
0	3085	502.301352494019	1
0	3086	502.312359587128	0
0	3231	531.10343597154	1
0	3232	531.132107010606	0
0	3357	551.142818051698	1
0	3358	551.177726864114	0
0	3483	578.230979811093	1
0	3484	578.263738369102	0
0	3543	587.372247224964	1
0	3544	587.406892440154	0
0	3625	605.081456271939	1
0	3627	605.186685742919	2
0	3628	605.259848311638	1
0	3630	605.299641833218	0
0	3704	618.160577152662	1
0	3705	618.185658390476	0
0	3790	630.474111207893	1
0	3791	630.493005072051	0
0	3840	637.168854337272	1
0	3841	637.183165267184	0
0	4192	695.717537880569	1
0	4193	695.740977470167	0
0	4313	712.590737792088	1
0	4314	712.622082507207	0
0	4380	725.756362892992	1
0	4381	725.96331663669	0
0	4575	759.660306864478	1
0	4576	759.69722693294	0
0	4585	761.009964333809	1
0	4586	761.047737165467	0
0	4645	768.232480193801	1
0	4646	768.252659571598	0
0	4736	779.745548541772	1
0	4737	779.764114778304	0
0	4771	784.598891845457	1
0	4772	784.618115953153	0
0	4984	818.983736136211	1
0	4985	819.017716634203	0
0	5249	860.145396090271	1
0	5250	860.17661094918	0
0	5286	863.707265533021	1
0	5287	863.708673198797	0
0	5350	875.764317946642	1
0	5351	875.766662657757	0
0	5437	895.688258670265	1
0	5438	895.897531665469	0
0	5739	963.942700642099	1
0	5740	963.995204639243	0
0	5778	968.769315986091	1
0	5779	968.776951391336	0
0	5873	986.631001673581	1
0	5874	986.653153533263	0
1	5	2.01778160195	0.03979352158
1	10	2.105859974405	0.03979352158
1	15	3.336835681267	0.03979352158
1	20	3.402892342663	0.03979352158
1	25	4.480128097432	0.03979352158
1	30	6.860421415024	0.03979352158
1	35	8.288858654251	0.03979352158
1	40	9.866202235269	0.03979352158
1	45	11.626072141736	0.03979352158
1	50	14.153696894857	0.03979352158
1	55	14.3350180431	0.03979352158
1	60	14.50159659329	0.03979352158
1	65	14.946514179043	0.03979352158
1	70	16.876150048242	0.03979352158
1	75	17.409872975272	0.03979352158
1	80	17.816183036369	0.03979352158
1	85	18.403293117561	0.03979352158
1	90	18.92035103282	0.03979352158
1	95	19.22353310637	0.03979352158
1	100	19.318884382537	0.03979352158
1	105	21.289050950277	0.03979352158
1	110	21.632228230713	0.03979352158
1	115	22.052327590419	0.03979352158
1	122	23.173305921406	0.03979352158
1	125	23.213099442986	0.077945198002
1	130	23.911361379712	0.03979352158
1	135	25.138006458228	0.03979352158
1	140	27.36001222953	0.03979352158
1	145	27.986341366902	0.03979352158
1	150	29.252385605441	0.03979352158
1	156	29.713617804182	0.03979352158
1	161	33.169739667528	0.03979352158
1	168	33.614257168043	0.03979352158
1	171	33.654050689623	0.045121720544
1	176	34.041672243063	0.03979352158
1	183	34.726026291308	0.03979352158
1	186	34.765819812888	0.06366455637
1	191	35.197231633016	0.03979352158
1	196	35.643621254101	0.03979352158
1	201	36.314249454761	0.03979352158
1	206	36.658718912153	0.03979352158
1	211	41.234747466345	0.03979352158
1	216	42.047405207817	0.03979352158
1	221	42.887790352796	0.03979352158
1	226	43.664379236025	0.03979352158
1	231	44.703985819287	0.03979352158
1	236	45.654518045197	0.03979352158
1	241	45.727296187026	0.03979352158
1	246	47.45520191226	0.03979352158
1	251	49.241135536738	0.03979352158
1	256	51.784056144831	0.03979352158
1	263	52.359075825164	0.03979352158
1	266	52.398869346744	0.077165758351
1	271	52.731085815241	0.03979352158
1	276	53.028877933871	0.03979352158
1	281	56.929794996573	0.03979352158
1	286	57.191873935637	0.03979352158
1	291	57.5181149745	0.03979352158
1	296	57.760436801206	0.03979352158
1	301	58.006352059996	0.03979352158
1	311	58.256383963377	0.200461784727
1	314	58.296177484957	0.199757660356
1	317	58.335971006537	0.22379362204
1	322	58.537572000995	0.03979352158
1	327	58.798187523152	0.03979352158
1	332	59.049463670643	0.03979352158
1	337	59.77438183765	0.03979352158
1	342	59.998791245619	0.03979352158
1	347	60.421889877255	0.03979352158
1	352	60.50336774935	0.03979352158
1	357	62.276447692783	0.03979352158
1	362	63.759500396401	0.03979352158
1	367	64.385074355394	0.03979352158
1	372	64.624771433421	0.03979352158
1	377	65.353886591311	0.03979352158
1	382	65.528011607421	0.03979352158
1	387	66.535440397861	0.03979352158
1	392	66.871002522531	0.03979352158
1	397	68.012317329412	0.03979352158
1	402	69.802526530792	0.03979352158
1	407	71.615774884925	0.03979352158
1	412	75.462373290359	0.03979352158
1	417	78.300384565894	0.03979352158
1	422	78.51444776947	0.03979352158
1	429	81.281445962117	0.03979352158
1	432	81.321239483697	0.078254762554
1	437	81.869885622774	0.03979352158
1	442	81.989308116754	0.03979352158
1	447	84.464546038101	0.03979352158
1	452	84.790400224846	0.03979352158
1	458	85.540216066638	0.03979352158
1	463	85.796373647018	0.03979352158
1	468	86.178155498055	0.03979352158
1	473	88.872715911708	0.03979352158
1	478	90.128602839515	0.03979352158
1	483	90.334318633097	0.03979352158
1	488	90.779082726942	0.03979352158
1	493	91.311399960065	0.03979352158
1	498	92.296452852918	0.03979352158
1	503	92.493289022092	0.03979352158
1	508	92.636164691127	0.03979352158
1	513	93.573356336207	0.03979352158
1	518	93.987509679404	0.03979352158
1	523	94.290250579312	0.03979352158
1	528	98.22161549518	0.03979352158
1	533	99.11964326106	0.03979352158
1	538	99.460966416415	0.03979352158
1	543	99.922099984383	0.03979352158
1	548	103.449346743585	0.03979352158
1	553	103.800112101438	0.03979352158
1	558	105.351370640488	0.03979352158
1	563	105.721502150698	0.03979352158
1	568	106.118598099794	0.03979352158
1	573	106.60816876285	0.03979352158
1	578	107.53776122771	0.03979352158
1	583	107.852923542839	0.03979352158
1	588	108.17797337447	0.03979352158
1	593	108.486797261898	0.03979352158
1	598	108.719201682189	0.03979352158
1	603	109.497231636903	0.03979352158
1	609	110.717267905554	0.03979352158
1	614	111.590875518154	0.03979352158
1	619	112.535071016447	0.03979352158
1	624	112.983490918633	0.03979352158
1	629	115.025243241298	0.03979352158
1	634	117.657452505182	0.03979352158
1	639	117.838692252718	0.03979352158
1	644	119.146531906828	0.03979352158
1	649	119.583113524835	0.03979352158
1	654	120.835959610709	0.03979352158
1	661	121.112027294463	0.03979352158
1	664	121.151820816043	0.040192325329
1	669	121.521630448738	0.03979352158
1	674	121.99582449523	0.03979352158
1	679	122.742416831217	0.03979352158
1	684	122.842977445484	0.03979352158
1	689	124.238936132952	0.03979352158
1	694	124.541469725421	0.03979352158
1	699	124.68274794118	0.03979352158
1	704	125.038708182375	0.03979352158
1	709	128.987817237082	0.03979352158
1	714	130.035676341936	0.03979352158
1	719	130.271231237633	0.03979352158
1	724	130.508377389918	0.03979352158
1	729	131.402731332463	0.03979352158
1	734	134.639417789517	0.03979352158
1	741	135.307780195201	0.03979352158
1	744	135.347573716781	0.079102083871
1	749	137.166414816852	0.03979352158
1	754	138.312454570409	0.03979352158
1	764	138.56248647379	0.163748004055
1	767	138.60227999537	0.169575460826
1	770	138.64207351695	0.084495697718
1	775	139.312251525453	0.03979352158
1	780	139.705928706112	0.03979352158
1	785	139.864823813899	0.03979352158
1	790	140.460561616843	0.03979352158
1	795	140.700921389235	0.03979352158
1	800	141.275676300883	0.03979352158
1	807	142.809755957605	0.03979352158
1	810	142.849549479185	0.045938306011
1	815	143.455703855873	0.03979352158
1	820	143.918029951136	0.03979352158
1	825	144.182307892816	0.03979352158
1	830	144.303545964953	0.03979352158
1	835	145.275029822811	0.03979352158
1	840	145.658975659319	0.03979352158
1	845	148.640042542743	0.03979352158
1	850	150.277190508233	0.03979352158
1	855	150.738127769615	0.03979352158
1	860	150.953610635728	0.03979352158
1	865	151.388913361452	0.03979352158
1	870	153.174201403992	0.03979352158
1	875	153.839006317561	0.03979352158
1	880	154.002783497184	0.03979352158
1	885	154.947456591174	0.03979352158
1	890	155.54460977137	0.03979352158
1	895	156.293655572342	0.03979352158
1	900	157.195629835895	0.03979352158
1	905	157.855728910298	0.03979352158
1	911	158.762872361966	0.03979352158
1	916	159.647421508426	0.03979352158
1	921	159.775838526368	0.03979352158
1	926	160.420432672242	0.03979352158
1	931	160.530216172864	0.03979352158
1	936	161.373142338791	0.03979352158
1	941	165.765014319367	0.03979352158
1	946	165.856023078944	0.03979352158
1	951	167.143714650495	0.03979352158
1	956	168.107519114678	0.03979352158
1	961	168.389143575101	0.03979352158
1	966	168.666304206039	0.03979352158
1	973	168.888419981161	0.03979352158
1	976	168.928213502741	0.076848333506
1	981	169.084404440723	0.03979352158
1	988	170.70429165891	0.03979352158
1	991	170.74408518049	0.050018574152
1	996	171.517617190885	0.03979352158
1	1003	172.606426521835	0.03979352158
1	1008	172.646220043415	0.054356948146
1	1011	172.686013564995	0.058968276029
1	1016	172.866906387674	0.03979352158
1	1021	173.000862023564	0.03979352158
1	1026	173.453809419375	0.03979352158
1	1031	174.720342457692	0.03979352158
1	1036	175.030519062058	0.03979352158
1	1041	175.630104931486	0.03979352158
1	1046	176.350434191224	0.03979352158
1	1051	177.60863348608	0.03979352158
1	1056	179.651128284741	0.03979352158
1	1064	180.405843335744	0.03979352158
1	1067	180.445636857324	0.07620897153
1	1072	181.443501188634	0.03979352158
1	1079	181.486062196663	0.03979352158
1	1082	181.525855718243	0.046994523431
1	1087	181.719720591894	0.03979352158
1	1092	181.953873163817	0.03979352158
1	1097	182.068614606023	0.03979352158
1	1102	182.582286031952	0.03979352158
1	1107	182.876174849841	0.03979352158
1	1112	183.173078986676	0.03979352158
1	1117	184.106153114889	0.03979352158
1	1124	184.240071957709	0.03979352158
1	1127	184.279865479289	0.052812981528
1	1132	186.524797779336	0.03979352158
1	1137	189.64866830673	0.03979352158
1	1142	190.765292888451	0.03979352158
1	1147	191.919883701859	0.03979352158
1	1152	192.076463097235	0.03979352158
1	1157	192.169820900187	0.03979352158
1	1162	193.941494327684	0.03979352158
1	1167	196.381815645366	0.03979352158
1	1172	198.374982178533	0.03979352158
1	1177	199.453387504628	0.03979352158
1	1182	199.505431818932	0.03979352158
1	1187	200.695578333012	0.03979352158
1	1192	201.311317311325	0.03979352158
1	1197	201.444115396948	0.03979352158
1	1202	201.822309342073	0.03979352158
1	1207	205.74953052037	0.03979352158
1	1213	206.891525452783	0.03979352158
1	1218	208.955484321017	0.03979352158
1	1223	209.018733474089	0.03979352158
1	1230	209.222716326229	0.03979352158
1	1233	209.262509847809	0.07590500466
1	1238	209.438058717973	0.03979352158
1	1243	209.875866206601	0.03979352158
1	1248	210.455127017226	0.03979352158
1	1253	210.618364854839	0.03979352158
1	1258	210.913580925832	0.03979352158
1	1263	211.716475926869	0.03979352158
1	1268	213.529441033089	0.03979352158
1	1273	213.936835283066	0.03979352158
1	1278	214.082364057081	0.03979352158
1	1283	214.44248079005	0.03979352158
1	1288	215.912780340062	0.03979352158
1	1293	216.701818719676	0.03979352158
1	1298	219.164442508995	0.03979352158
1	1305	219.311742293256	0.03979352158
1	1308	219.351535814836	0.062297207224
1	1313	219.874064917905	0.03979352158
1	1318	220.983581094865	0.03979352158
1	1323	221.027629542943	0.03979352158
1	1328	221.307012153338	0.03979352158
1	1333	222.018363265048	0.03979352158
1	1338	222.675520484233	0.03979352158
1	1343	223.033445910708	0.03979352158
1	1348	224.147521454606	0.03979352158
1	1353	224.441200288239	0.03979352158
1	1358	224.80588793054	0.03979352158
1	1364	226.192807603317	0.03979352158
1	1369	226.420849619944	0.03979352158
1	1374	227.326174696327	0.03979352158
1	1379	227.634027629052	0.03979352158
1	1384	228.054631312811	0.03979352158
1	1389	229.870990903822	0.03979352158
1	1394	230.054935294987	0.03979352158
1	1399	231.173654695611	0.03979352158
1	1404	232.50756692997	0.03979352158
1	1409	232.915991378031	0.03979352158
1	1414	232.978786459249	0.03979352158
1	1419	233.357449632491	0.03979352158
1	1424	234.135274900813	0.03979352158
1	1429	234.646251206443	0.03979352158
1	1434	234.894296722812	0.03979352158
1	1439	235.415333671464	0.03979352158
1	1444	236.16681918855	0.03979352158
1	1449	236.253262908283	0.03979352158
1	1454	237.740588537947	0.03979352158
1	1459	238.818858810677	0.03979352158
1	1464	238.936217533835	0.03979352158
1	1469	239.583693913495	0.03979352158
1	1474	241.157186601321	0.03979352158
1	1479	242.861060096245	0.03979352158
1	1484	243.985217926464	0.03979352158
1	1489	248.888067262291	0.03979352158
1	1494	248.957175278219	0.03979352158
1	1499	249.110279015788	0.03979352158
1	1504	249.207098685689	0.03979352158
1	1509	249.519525162834	0.03979352158
1	1515	249.769557066215	0.210150340537
1	1520	249.870028299113	0.03979352158
1	1525	250.460085777098	0.03979352158
1	1530	251.885575719856	0.03979352158
1	1535	253.558891338943	0.03979352158
1	1540	254.004136756197	0.03979352158
1	1545	254.250919547346	0.03979352158
1	1550	255.696930939088	0.03979352158
1	1555	256.3218833962	0.03979352158
1	1560	258.880225665548	0.03979352158
1	1565	259.18081900922	0.03979352158
1	1570	259.417460180566	0.03979352158
1	1575	260.046817136438	0.03979352158
1	1580	260.611334162444	0.03979352158
1	1585	261.233696810031	0.03979352158
1	1590	261.481969775304	0.03979352158
1	1595	264.168777937216	0.03979352158
1	1600	264.932709346758	0.03979352158
1	1605	266.192132324	0.03979352158
1	1610	266.950234200853	0.03979352158
1	1615	268.154126774414	0.03979352158
1	1620	268.217423686177	0.03979352158
1	1625	268.495015004089	0.03979352158
1	1630	269.08359755197	0.03979352158
1	1635	269.228468840367	0.03979352158
1	1640	269.825362504544	0.03979352158
1	1645	270.2546859348	0.03979352158
1	1650	270.772899298969	0.03979352158
1	1657	272.248211384623	0.03979352158
1	1660	272.288004906203	0.075644560751
1	1666	273.506248841327	0.03979352158
1	1671	276.800679892553	0.03979352158
1	1676	279.340472944994	0.03979352158
1	1681	280.326045569776	0.03979352158
1	1686	281.388635311542	0.03979352158
1	1691	282.022028075447	0.03979352158
1	1696	283.355951252864	0.03979352158
1	1701	285.091814355571	0.03979352158
1	1706	285.351610887025	0.03979352158
1	1711	286.464283073263	0.03979352158
1	1716	287.827734458095	0.03979352158
1	1721	288.197927259308	0.03979352158
1	1726	289.62108862684	0.03979352158
1	1731	289.687615779552	0.03979352158
1	1736	290.223610528747	0.03979352158
1	1741	290.387685530344	0.03979352158
1	1746	290.585874191791	0.03979352158
1	1751	291.364828139442	0.03979352158
1	1756	291.965453112582	0.03979352158
1	1761	292.750133257093	0.03979352158
1	1766	292.93310801396	0.03979352158
1	1771	294.356655441581	0.03979352158
1	1776	295.236737833727	0.03979352158
1	1781	295.818320706065	0.03979352158
1	1786	295.932651722902	0.03979352158
1	1791	298.055381670794	0.03979352158
1	1796	299.666712003109	0.03979352158
1	1801	299.885708127712	0.03979352158
1	1806	300.946786511668	0.03979352158
1	1811	301.003874714048	0.03979352158
1	1817	301.299300120159	0.03979352158
1	1822	302.561692764962	0.03979352158
1	1827	302.89814066632	0.03979352158
1	1832	303.588287448236	0.03979352158
1	1839	303.924748906692	0.03979352158
1	1842	303.964542428272	0.076449816205
1	1847	304.900759233421	0.03979352158
1	1852	306.97279962645	0.03979352158
1	1857	307.142053274508	0.03979352158
1	1862	308.3031192224	0.03979352158
1	1867	310.180213437489	0.03979352158
1	1872	312.395518440444	0.03979352158
1	1877	312.503676081402	0.03979352158
1	1882	313.098586134828	0.03979352158
1	1887	313.167849875482	0.03979352158
1	1892	313.563860471364	0.03979352158
1	1897	313.795923953166	0.03979352158
1	1902	314.076948317689	0.03979352158
1	1907	315.496645263767	0.03979352158
1	1912	315.873945966278	0.03979352158
1	1917	316.456691233097	0.03979352158
1	1922	317.496831397039	0.03979352158
1	1927	317.635764075695	0.03979352158
1	1932	318.48312915054	0.03979352158
1	1937	320.534521932784	0.03979352158
1	1942	322.891143300476	0.03979352158
1	1947	324.327566659963	0.03979352158
1	1952	325.59537091056	0.03979352158
1	1957	327.806510599347	0.03979352158
1	1962	328.854227476003	0.03979352158
1	1968	329.104259379384	0.240709331622
1	1973	329.673468480967	0.03979352158
1	1978	330.726713575664	0.03979352158
1	1983	331.278416274259	0.03979352158
1	1988	331.444383387492	0.03979352158
1	1993	332.400335296241	0.03979352158
1	1998	332.7724975727	0.03979352158
1	2003	333.955221827941	0.03979352158
1	2008	335.138820626298	0.03979352158
1	2013	335.613561828945	0.03979352158
1	2018	336.267455516897	0.03979352158
1	2023	336.741305402618	0.03979352158
1	2028	336.877896470445	0.03979352158
1	2033	337.74850773682	0.03979352158
1	2038	337.947219090553	0.03979352158
1	2043	338.468543042512	0.03979352158
1	2048	339.349540120745	0.03979352158
1	2053	339.565016286746	0.03979352158
1	2058	340.883831779578	0.03979352158
1	2063	341.069411464324	0.03979352158
1	2068	341.611025959273	0.03979352158
1	2073	342.673245016721	0.03979352158
1	2078	343.351015921275	0.03979352158
1	2083	346.096622954963	0.03979352158
1	2088	347.315259718469	0.03979352158
1	2095	347.631994707154	0.03979352158
1	2098	347.671788228734	0.054299802328
1	2103	347.771111341162	0.03979352158
1	2108	348.469116104062	0.03979352158
1	2113	351.893075354331	0.03979352158
1	2119	352.240166530834	0.03979352158
1	2124	354.247564187637	0.03979352158
1	2129	354.820726732957	0.03979352158
1	2134	355.429941459818	0.03979352158
1	2139	355.712244538588	0.03979352158
1	2144	355.783129998544	0.03979352158
1	2149	356.146149687254	0.03979352158
1	2154	358.175030893931	0.03979352158
1	2159	359.949756964942	0.03979352158
1	2164	360.567909862793	0.03979352158
1	2169	361.023275044951	0.03979352158
1	2176	361.20209202519	0.03979352158
1	2179	361.24188554677	0.047661410563
1	2184	362.892470627908	0.03979352158
1	2189	363.782420640281	0.03979352158
1	2194	364.42715270143	0.03979352158
1	2199	365.184236372416	0.03979352158
1	2204	366.221712565116	0.03979352158
1	2209	366.391363647423	0.03979352158
1	2214	369.679588484034	0.03979352158
1	2219	370.229234656721	0.03979352158
1	2224	372.798938326074	0.03979352158
1	2229	373.0988999312	0.03979352158
1	2234	373.231709369114	0.03979352158
1	2239	373.352423261024	0.03979352158
1	2244	373.9169766527	0.03979352158
1	2249	377.015925477021	0.03979352158
1	2254	377.435559171836	0.03979352158
1	2259	379.590343994323	0.03979352158
1	2264	379.700249848413	0.03979352158
1	2270	380.191710204012	0.03979352158
1	2275	381.463327619561	0.03979352158
1	2280	382.179188534141	0.03979352158
1	2285	382.259144748199	0.03979352158
1	2290	383.089383047671	0.03979352158
1	2295	383.418349157456	0.03979352158
1	2300	383.615294951554	0.03979352158
1	2307	385.944245116253	0.03979352158
1	2310	385.984038637833	0.043764893421
1	2315	386.575256520672	0.03979352158
1	2320	387.225487506429	0.03979352158
1	2325	387.894033248029	0.03979352158
1	2330	387.933865892792	0.03979352158
1	2335	388.209505748774	0.03979352158
1	2340	388.977389911152	0.03979352158
1	2345	389.346895408264	0.03979352158
1	2350	391.024704951158	0.03979352158
1	2355	391.325719137024	0.03979352158
1	2360	393.367618825573	0.03979352158
1	2365	395.289298101712	0.03979352158
1	2370	395.634465673403	0.03979352158
1	2375	395.696508769992	0.03979352158
1	2380	395.853760558825	0.03979352158
1	2385	395.944485892564	0.03979352158
1	2390	396.837887035671	0.03979352158
1	2395	397.253256744814	0.03979352158
1	2400	398.859006109297	0.03979352158
1	2405	400.294038889432	0.03979352158
1	2410	400.36692320492	0.03979352158
1	2415	403.220344459087	0.03979352158
1	2421	403.989448310511	0.03979352158
1	2426	404.39380097758	0.03979352158
1	2431	404.754942574626	0.03979352158
1	2436	405.56408820827	0.03979352158
1	2441	407.978060891351	0.03979352158
1	2446	408.199113291849	0.03979352158
1	2451	410.974568931308	0.03979352158
1	2456	411.869932935065	0.03979352158
1	2461	414.382710413551	0.03979352158
1	2466	415.159669105326	0.03979352158
1	2471	415.380294974206	0.03979352158
1	2476	416.466857716996	0.03979352158
1	2481	416.77391556145	0.03979352158
1	2488	419.529379147045	0.03979352158
1	2491	419.569172668625	0.057201292984
1	2496	424.080122475957	0.03979352158
1	2501	424.345382819098	0.03979352158
1	2506	424.896363375747	0.03979352158
1	2511	425.633411131671	0.03979352158
1	2516	426.042110093292	0.03979352158
1	2521	426.360562097176	0.03979352158
1	2526	426.495399753305	0.03979352158
1	2531	426.949441449929	0.03979352158
1	2536	426.991436882845	0.03979352158
1	2541	427.12025651346	0.03979352158
1	2548	427.169449997393	0.03979352158
1	2551	427.209243518973	0.048160661109
1	2556	427.347544479008	0.03979352158
1	2561	428.555763859925	0.03979352158
1	2566	428.790711556266	0.03979352158
1	2572	430.813488652435	0.03979352158
1	2577	431.414922356313	0.03979352158
1	2582	431.767854656416	0.03979352158
1	2587	431.815818129408	0.03979352158
1	2592	434.82599451882	0.03979352158
1	2597	436.075426188241	0.03979352158
1	2602	436.648015740675	0.03979352158
1	2607	437.022387715145	0.03979352158
1	2612	437.478061701606	0.03979352158
1	2617	438.28408009262	0.03979352158
1	2622	438.736349848357	0.03979352158
1	2627	438.810351708051	0.03979352158
1	2632	440.076409479491	0.03979352158
1	2637	440.218791055113	0.03979352158
1	2642	440.572220561366	0.03979352158
1	2647	440.909213721344	0.03979352158
1	2652	441.307815644981	0.03979352158
1	2657	441.58597589701	0.03979352158
1	2662	445.193563713417	0.03979352158
1	2667	445.255491653719	0.03979352158
1	2672	446.541121111976	0.03979352158
1	2677	447.386689411015	0.03979352158
1	2682	447.678591183685	0.03979352158
1	2687	448.148411040642	0.03979352158
1	2692	448.946192698761	0.03979352158
1	2697	449.423616503688	0.03979352158
1	2704	450.249554722465	0.03979352158
1	2709	450.289348244045	0.071671205876
1	2712	450.329141765625	0.039855985767
1	2717	451.191646177195	0.03979352158
1	2723	451.441678080576	0.219272241864
1	2728	451.793386151362	0.03979352158
1	2733	452.316405982978	0.03979352158
1	2738	452.835086059602	0.03979352158
1	2743	454.837583103938	0.03979352158
1	2748	455.504727457209	0.03979352158
1	2753	457.244181609426	0.03979352158
1	2758	457.72596151836	0.03979352158
1	2763	458.188046018641	0.03979352158
1	2768	458.468531888932	0.03979352158
1	2773	458.595160853191	0.03979352158
1	2778	459.298403298108	0.03979352158
1	2783	459.998445058556	0.03979352158
1	2788	460.436576195622	0.03979352158
1	2793	463.408743365747	0.03979352158
1	2798	463.714835720838	0.03979352158
1	2803	464.229880413111	0.03979352158
1	2808	465.16391393763	0.03979352158
1	2813	466.11383822607	0.03979352158
1	2818	466.455768304179	0.03979352158
1	2823	466.546187208272	0.03979352158
1	2828	467.063940028171	0.03979352158
1	2833	470.182870448497	0.03979352158
1	2838	470.392014937183	0.03979352158
1	2843	471.916366516171	0.03979352158
1	2848	472.484450889309	0.03979352158
1	2853	472.92023328385	0.03979352158
1	2858	473.659940099653	0.03979352158
1	2863	474.715767837168	0.03979352158
1	2868	475.104531606735	0.03979352158
1	2874	475.379735122111	0.03979352158
1	2879	479.712406713369	0.03979352158
1	2884	480.098226314729	0.03979352158
1	2889	481.241880732924	0.03979352158
1	2894	481.454825778924	0.03979352158
1	2899	481.959357965526	0.03979352158
1	2904	482.148963824215	0.03979352158
1	2909	482.605396712091	0.03979352158
1	2914	483.471422536805	0.03979352158
1	2919	483.975280646279	0.03979352158
1	2924	484.120090743019	0.03979352158
1	2929	484.296964784843	0.03979352158
1	2934	484.836896494959	0.03979352158
1	2939	485.420199433006	0.03979352158
1	2944	486.519987746923	0.03979352158
1	2949	486.623477999145	0.03979352158
1	2954	486.772752221897	0.03979352158
1	2959	486.917997378335	0.03979352158
1	2964	487.119826102283	0.03979352158
1	2969	488.521126619468	0.03979352158
1	2974	489.789593551961	0.03979352158
1	2979	489.978923010973	0.03979352158
1	2984	490.501152719074	0.03979352158
1	2989	491.379040157869	0.03979352158
1	2994	491.473592537512	0.03979352158
1	2999	492.134376206774	0.03979352158
1	3004	493.4310131129	0.03979352158
1	3009	493.579152788146	0.03979352158
1	3014	494.312242894042	0.03979352158
1	3019	494.937692602698	0.03979352158
1	3025	495.859349227704	0.03979352158
1	3030	496.313024126616	0.03979352158
1	3035	496.540658479565	0.03979352158
1	3040	496.928900602515	0.03979352158
1	3045	497.827726935254	0.03979352158
1	3050	500.05298299848	0.03979352158
1	3055	500.511883997288	0.03979352158
1	3060	501.354561766037	0.03979352158
1	3065	501.437529500454	0.03979352158
1	3070	501.72324475943	0.03979352158
1	3075	501.95958569118	0.03979352158
1	3080	502.139028922811	0.03979352158
1	3087	502.312359587128	0.03979352158
1	3090	502.352153108708	0.050800614689
1	3095	502.970705755325	0.03979352158
1	3100	503.334419090008	0.03979352158
1	3105	503.897514261946	0.03979352158
1	3110	506.696803572702	0.03979352158
1	3115	507.597625040532	0.03979352158
1	3120	508.29751283982	0.03979352158
1	3125	509.952698385389	0.03979352158
1	3130	511.624623088872	0.03979352158
1	3135	512.230373202489	0.03979352158
1	3140	512.708070401174	0.03979352158
1	3145	513.353419159446	0.03979352158
1	3150	513.840031047358	0.03979352158
1	3155	514.104664194521	0.03979352158
1	3160	514.845328026911	0.03979352158
1	3165	515.454229113042	0.03979352158
1	3170	516.294667427721	0.03979352158
1	3176	516.676697796465	0.03979352158
1	3181	517.874293113932	0.03979352158
1	3186	518.497774700183	0.03979352158
1	3191	518.81706361768	0.03979352158
1	3196	521.657470985453	0.03979352158
1	3201	522.86355358803	0.03979352158
1	3206	523.451227407023	0.03979352158
1	3211	524.130919593287	0.03979352158
1	3216	524.44689263365	0.03979352158
1	3221	525.045394722374	0.03979352158
1	3226	527.463621848176	0.03979352158
1	3233	531.132107010606	0.03979352158
1	3236	531.171900532186	0.068464560646
1	3241	531.399809454242	0.03979352158
1	3246	531.702155269986	0.03979352158
1	3251	531.758943244912	0.03979352158
1	3256	533.27719035657	0.03979352158
1	3261	534.560107779058	0.03979352158
1	3266	535.521719889252	0.03979352158
1	3271	535.780977459916	0.03979352158
1	3276	536.454270768607	0.03979352158
1	3281	537.139549322242	0.03979352158
1	3286	539.498832365102	0.03979352158
1	3291	539.786430402044	0.03979352158
1	3296	540.693677725596	0.03979352158
1	3301	542.313518472361	0.03979352158
1	3306	542.555367189173	0.03979352158
1	3311	542.676108278859	0.03979352158
1	3316	543.098071857375	0.03979352158
1	3321	545.615698584206	0.03979352158
1	3327	546.443422770737	0.03979352158
1	3332	547.281079681272	0.03979352158
1	3337	548.125393398813	0.03979352158
1	3342	549.143155626005	0.03979352158
1	3347	550.381400061936	0.03979352158
1	3352	550.998196885653	0.03979352158
1	3359	551.177726864114	0.03979352158
1	3362	551.217520385694	0.074702333996
1	3367	554.123399784188	0.03979352158
1	3372	554.622480465061	0.03979352158
1	3377	555.27762417685	0.03979352158
1	3382	555.953171509894	0.03979352158
1	3387	556.371844579751	0.03979352158
1	3392	556.477590283779	0.03979352158
1	3397	558.506790505056	0.03979352158
1	3402	559.381464429356	0.03979352158
1	3407	560.533768727491	0.03979352158
1	3412	565.003423663795	0.03979352158
1	3417	565.207743155537	0.03979352158
1	3422	566.206369605557	0.03979352158
1	3427	568.723569581763	0.03979352158
1	3432	569.095396041383	0.03979352158
1	3437	569.605079734281	0.03979352158
1	3442	570.631192321002	0.03979352158
1	3447	573.986484266154	0.03979352158
1	3452	574.770531055686	0.03979352158
1	3457	576.276607892433	0.03979352158
1	3462	576.730742703834	0.03979352158
1	3467	576.879326373222	0.03979352158
1	3472	577.036830346466	0.03979352158
1	3478	577.596937793743	0.03979352158
1	3485	578.263738369102	0.03979352158
1	3488	578.303531890682	0.072552079589
1	3493	579.251891322381	0.03979352158
1	3498	580.246299068696	0.03979352158
1	3503	580.418138219607	0.03979352158
1	3508	582.803176120048	0.03979352158
1	3513	582.846592773425	0.03979352158
1	3518	582.936930708053	0.03979352158
1	3523	583.280226302242	0.03979352158
1	3528	584.665297747273	0.03979352158
1	3533	585.151808855833	0.03979352158
1	3538	586.826027340181	0.03979352158
1	3545	587.406892440154	0.03979352158
1	3548	587.446685961734	0.07443873677
1	3553	588.157708547588	0.03979352158
1	3558	588.852516165792	0.03979352158
1	3563	589.96349264947	0.03979352158
1	3568	591.751436294966	0.03979352158
1	3573	592.86945947216	0.03979352158
1	3578	593.707138639092	0.03979352158
1	3583	593.851844752663	0.03979352158
1	3588	595.036329497009	0.03979352158
1	3593	596.09410604425	0.03979352158
1	3598	596.540652563132	0.03979352158
1	3603	597.520779314497	0.03979352158
1	3608	597.969437563629	0.03979352158
1	3613	603.023718903848	0.03979352158
1	3618	603.679187494022	0.03979352158
1	3623	605.049609929837	0.03979352158
1	3631	605.299641833218	0.218185561279
1	3634	605.339435354798	0.152749611879
1	3639	605.80710081511	0.03979352158
1	3644	606.566656126723	0.03979352158
1	3649	608.669440422097	0.03979352158
1	3654	609.41387110246	0.03979352158
1	3659	610.844543040371	0.03979352158
1	3664	611.172417230701	0.03979352158
1	3669	612.031042232532	0.03979352158
1	3674	612.716384969593	0.03979352158
1	3679	612.817799396898	0.03979352158
1	3684	614.892381109919	0.03979352158
1	3689	615.141487077757	0.03979352158
1	3694	615.978503477266	0.03979352158
1	3699	616.245776287053	0.03979352158
1	3706	618.185658390476	0.03979352158
1	3709	618.225451912056	0.064874759394
1	3714	618.441840514598	0.03979352158
1	3719	618.790246056043	0.03979352158
1	3724	620.514195841708	0.03979352158
1	3729	622.151147761042	0.03979352158
1	3734	623.065960930716	0.03979352158
1	3739	623.382363885555	0.03979352158
1	3744	623.897413587299	0.03979352158
1	3749	624.874740540445	0.03979352158
1	3754	624.996770603297	0.03979352158
1	3759	626.889401565911	0.03979352158
1	3764	627.608137283465	0.03979352158
1	3769	627.792832772022	0.03979352158
1	3774	628.763148299454	0.03979352158
1	3780	629.547932168806	0.03979352158
1	3785	630.064597689787	0.03979352158
1	3792	630.493005072051	0.03979352158
1	3795	630.532798593631	0.058687385738
1	3800	631.875810802305	0.03979352158
1	3805	632.550796931837	0.03979352158
1	3810	632.712543982321	0.03979352158
1	3815	633.160316930586	0.03979352158
1	3820	634.343394341273	0.03979352158
1	3825	634.693426605439	0.03979352158
1	3830	635.860750053705	0.03979352158
1	3835	636.068044204761	0.03979352158
1	3842	637.183165267184	0.03979352158
1	3845	637.222958788764	0.054104451492
1	3850	638.24212288615	0.03979352158
1	3855	638.836679622018	0.03979352158
1	3860	639.783013323364	0.03979352158
1	3865	639.959669465411	0.03979352158
1	3870	641.711085592911	0.03979352158
1	3875	642.014677442314	0.03979352158
1	3880	642.177449904718	0.03979352158
1	3885	643.139834159391	0.03979352158
1	3890	643.329284975459	0.03979352158
1	3895	643.921382918685	0.03979352158
1	3900	644.111054018475	0.03979352158
1	3905	645.594839643186	0.03979352158
1	3910	646.653841259786	0.03979352158
1	3915	647.150578887842	0.03979352158
1	3920	647.316937747439	0.03979352158
1	3925	648.463172967188	0.03979352158
1	3931	648.975238935266	0.03979352158
1	3936	649.451899560896	0.03979352158
1	3941	651.092497103822	0.03979352158
1	3946	651.844694822395	0.03979352158
1	3951	653.048708503887	0.03979352158
1	3956	653.095124753383	0.03979352158
1	3961	653.515518487466	0.03979352158
1	3966	654.31309135879	0.03979352158
1	3971	654.5219129926	0.03979352158
1	3976	655.468599372503	0.03979352158
1	3981	657.150999640779	0.03979352158
1	3986	657.234462266249	0.03979352158
1	3991	657.810672878262	0.03979352158
1	3996	658.21604977429	0.03979352158
1	4001	658.277469690624	0.03979352158
1	4006	658.328515610644	0.03979352158
1	4011	658.457844866446	0.03979352158
1	4016	658.966271073504	0.03979352158
1	4021	659.388025769534	0.03979352158
1	4026	659.882827385566	0.03979352158
1	4031	660.83294767039	0.03979352158
1	4036	660.874925574238	0.03979352158
1	4041	662.662382124841	0.03979352158
1	4046	664.13312218166	0.03979352158
1	4051	664.41204867011	0.03979352158
1	4056	664.639668408742	0.03979352158
1	4061	666.223601770714	0.03979352158
1	4066	668.172731181887	0.03979352158
1	4071	669.084892468351	0.03979352158
1	4076	669.170363871414	0.03979352158
1	4082	670.042857890052	0.03979352158
1	4087	671.796749283387	0.03979352158
1	4092	672.001671212055	0.03979352158
1	4097	674.869298669068	0.03979352158
1	4102	675.864321441852	0.03979352158
1	4107	676.472933647355	0.03979352158
1	4112	677.283196574209	0.03979352158
1	4117	677.567868981405	0.03979352158
1	4122	677.617859761966	0.03979352158
1	4127	678.588354189918	0.03979352158
1	4132	679.53590582169	0.03979352158
1	4137	682.775844636681	0.03979352158
1	4142	683.83753019564	0.03979352158
1	4147	684.082842758524	0.03979352158
1	4152	684.183045814494	0.03979352158
1	4157	685.531228625271	0.03979352158
1	4162	685.768998325346	0.03979352158
1	4167	687.932484551851	0.03979352158
1	4172	689.096633345633	0.03979352158
1	4177	691.964277183765	0.03979352158
1	4182	693.320700381439	0.03979352158
1	4187	693.857849611491	0.03979352158
1	4194	695.740977470167	0.03979352158
1	4197	695.780770991747	0.063233111178
1	4202	696.070198589506	0.03979352158
1	4207	696.378320656093	0.03979352158
1	4212	697.00576473395	0.03979352158
1	4217	698.508224493922	0.03979352158
1	4222	700.004418267983	0.03979352158
1	4227	700.355811197982	0.03979352158
1	4233	700.804579074325	0.03979352158
1	4238	701.228232274674	0.03979352158
1	4243	701.616411610106	0.03979352158
1	4248	701.700225789189	0.03979352158
1	4253	702.259863403167	0.03979352158
1	4258	704.078092298902	0.03979352158
1	4263	704.213233721075	0.03979352158
1	4268	706.299696550318	0.03979352158
1	4273	708.44136653437	0.03979352158
1	4278	709.33906273037	0.03979352158
1	4283	709.626878742966	0.03979352158
1	4288	710.024575711745	0.03979352158
1	4293	710.524881130729	0.03979352158
1	4298	710.609364230529	0.03979352158
1	4303	710.74886401088	0.03979352158
1	4308	711.345198364654	0.03979352158
1	4315	712.622082507207	0.03979352158
1	4318	712.661876028787	0.071138236699
1	4323	717.046051452875	0.03979352158
1	4328	717.594714754153	0.03979352158
1	4333	719.083732153372	0.03979352158
1	4338	719.877168503216	0.03979352158
1	4343	719.985758020699	0.03979352158
1	4348	720.081975634271	0.03979352158
1	4353	721.084563779474	0.03979352158
1	4358	721.929654793346	0.03979352158
1	4363	722.214373443425	0.03979352158
1	4368	724.32491454122	0.03979352158
1	4373	724.79190971522	0.03979352158
1	4378	725.753078254889	0.03979352158
1	4384	726.00311015827	0.246747265278
1	4389	731.920252640995	0.03979352158
1	4394	732.437536869907	0.03979352158
1	4399	732.653645814994	0.03979352158
1	4404	733.504778432608	0.03979352158
1	4409	735.202203901296	0.03979352158
1	4414	735.650163964769	0.03979352158
1	4419	736.053454427282	0.03979352158
1	4424	736.369250094116	0.03979352158
1	4429	737.659778205734	0.03979352158
1	4434	738.600513038806	0.03979352158
1	4439	738.725618830534	0.03979352158
1	4444	739.690552286803	0.03979352158
1	4449	740.752415422089	0.03979352158
1	4454	741.137310235754	0.03979352158
1	4459	741.429329916677	0.03979352158
1	4464	741.607193340189	0.03979352158
1	4469	743.448550408389	0.03979352158
1	4474	743.578393516103	0.03979352158
1	4479	745.237008082655	0.03979352158
1	4484	746.03585403179	0.03979352158
1	4489	746.758352925735	0.03979352158
1	4494	747.133898780614	0.03979352158
1	4499	747.207311809659	0.03979352158
1	4504	748.262095599843	0.03979352158
1	4509	749.72958754056	0.03979352158
1	4514	752.711868261513	0.03979352158
1	4519	752.87282938686	0.03979352158
1	4524	753.571242276162	0.03979352158
1	4529	754.333107953826	0.03979352158
1	4535	755.059073291308	0.03979352158
1	4540	755.49166859399	0.03979352158
1	4545	757.607425689559	0.03979352158
1	4550	757.659990285231	0.03979352158
1	4555	758.007510100627	0.03979352158
1	4560	758.476303568483	0.03979352158
1	4565	758.894585375694	0.03979352158
1	4570	759.1102205203	0.03979352158
1	4577	759.69722693294	0.03979352158
1	4580	759.73702045452	0.076713590042
1	4587	761.047737165467	0.03979352158
1	4590	761.087530687047	0.077566353238
1	4595	761.280842822799	0.03979352158
1	4600	761.429248847502	0.03979352158
1	4605	762.625362759902	0.03979352158
1	4610	762.688729696625	0.03979352158
1	4615	764.736339209168	0.03979352158
1	4620	765.096079521012	0.03979352158
1	4625	765.950113770054	0.03979352158
1	4630	766.34134103518	0.03979352158
1	4635	766.564435445664	0.03979352158
1	4640	766.718275437441	0.03979352158
1	4647	768.252659571598	0.03979352158
1	4650	768.292453093178	0.059972899377
1	4655	768.443290971899	0.03979352158
1	4660	768.809729258983	0.03979352158
1	4665	768.970946596186	0.03979352158
1	4670	769.285949629782	0.03979352158
1	4675	769.684430838689	0.03979352158
1	4680	770.456349392586	0.03979352158
1	4686	771.514060538879	0.03979352158
1	4691	772.097796528685	0.03979352158
1	4696	772.323267300731	0.03979352158
1	4701	772.3737078421	0.03979352158
1	4706	773.137145487686	0.03979352158
1	4711	773.832543428631	0.03979352158
1	4716	776.469343715768	0.03979352158
1	4721	777.350206668965	0.03979352158
1	4726	777.675854890232	0.03979352158
1	4731	778.794892926244	0.03979352158
1	4738	779.764114778304	0.03979352158
1	4741	779.803908299884	0.058359758112
1	4746	779.974633760612	0.03979352158
1	4751	780.407080499357	0.03979352158
1	4756	782.896144673962	0.03979352158
1	4761	783.321412235148	0.03979352158
1	4766	784.007663591264	0.03979352158
1	4773	784.618115953153	0.03979352158
1	4776	784.657909474733	0.059017629276
1	4781	786.931135019084	0.03979352158
1	4786	786.988920521516	0.03979352158
1	4791	787.413360909641	0.03979352158
1	4796	788.94867443677	0.03979352158
1	4801	789.267128850915	0.03979352158
1	4806	790.051232412319	0.03979352158
1	4811	790.820463056556	0.03979352158
1	4816	791.468816172611	0.03979352158
1	4821	791.672219879505	0.03979352158
1	4826	792.043724625406	0.03979352158
1	4831	792.394514388597	0.03979352158
1	4837	792.644901963192	0.03979352158
1	4842	793.334303341404	0.03979352158
1	4847	794.703523810823	0.03979352158
1	4852	795.434054865131	0.03979352158
1	4857	796.302624228	0.03979352158
1	4862	796.711491154167	0.03979352158
1	4867	796.844785488142	0.03979352158
1	4872	798.691600776447	0.03979352158
1	4877	799.751554803209	0.03979352158
1	4882	800.271655138721	0.03979352158
1	4887	800.78394689851	0.03979352158
1	4892	801.045103031545	0.03979352158
1	4897	802.145955507233	0.03979352158
1	4902	802.549748401359	0.03979352158
1	4907	803.22062147615	0.03979352158
1	4912	803.298435730628	0.03979352158
1	4917	805.080293667197	0.03979352158
1	4922	805.58306514942	0.03979352158
1	4927	806.310137946898	0.03979352158
1	4932	807.922453412539	0.03979352158
1	4937	808.203285337706	0.03979352158
1	4942	808.279001499898	0.03979352158
1	4947	809.107389249754	0.03979352158
1	4952	810.684910600109	0.03979352158
1	4957	811.932168138434	0.03979352158
1	4962	815.965654520283	0.03979352158
1	4967	816.938063888794	0.03979352158
1	4972	818.373565788738	0.03979352158
1	4977	818.639523862214	0.03979352158
1	4982	818.807478252402	0.03979352158
1	4988	819.057510155783	0.073774019572
1	4993	819.440865992343	0.03979352158
1	4998	819.684526093525	0.03979352158
1	5003	819.734109202591	0.03979352158
1	5008	820.631461709318	0.03979352158
1	5013	820.938086385294	0.03979352158
1	5018	824.934159205367	0.03979352158
1	5023	825.057005782265	0.03979352158
1	5028	825.651699703873	0.03979352158
1	5033	826.220464288131	0.03979352158
1	5038	826.273466121144	0.03979352158
1	5043	827.299687934011	0.03979352158
1	5048	827.930076123893	0.03979352158
1	5053	829.3132794349	0.03979352158
1	5058	829.688252982623	0.03979352158
1	5063	829.898182792917	0.03979352158
1	5068	831.378884487696	0.03979352158
1	5073	831.525962680824	0.03979352158
1	5078	831.611198018015	0.03979352158
1	5083	834.843720721263	0.03979352158
1	5088	835.312667640427	0.03979352158
1	5093	835.448922303925	0.03979352158
1	5098	836.234660549732	0.03979352158
1	5103	837.223069658437	0.03979352158
1	5108	837.367128826766	0.03979352158
1	5113	837.970196201237	0.03979352158
1	5118	839.394372680821	0.03979352158
1	5123	839.700442242099	0.03979352158
1	5128	839.75173470988	0.03979352158
1	5133	841.15483717256	0.03979352158
1	5139	841.625926849267	0.03979352158
1	5144	841.867017022708	0.03979352158
1	5149	842.726603243742	0.03979352158
1	5154	844.190464692096	0.03979352158
1	5159	844.418537141219	0.03979352158
1	5164	844.56905517939	0.03979352158
1	5169	845.206924622284	0.03979352158
1	5174	845.660515478165	0.03979352158
1	5179	846.205958164516	0.03979352158
1	5184	847.149490582426	0.03979352158
1	5189	847.542250180682	0.03979352158
1	5194	847.929315849324	0.03979352158
1	5199	848.437052055314	0.03979352158
1	5204	849.539789210674	0.03979352158
1	5209	851.608229019863	0.03979352158
1	5214	854.061025212782	0.03979352158
1	5219	855.497792152021	0.03979352158
1	5224	855.972262667169	0.03979352158
1	5229	857.978046737527	0.03979352158
1	5234	858.290201821248	0.03979352158
1	5239	859.168318867033	0.03979352158
1	5244	859.997811348532	0.03979352158
1	5251	860.17661094918	0.03979352158
1	5254	860.21640447076	0.071008380489
1	5259	860.597100644775	0.03979352158
1	5264	860.891932162815	0.03979352158
1	5269	861.778363256166	0.03979352158
1	5274	861.92678568234	0.03979352158
1	5279	863.367288139731	0.03979352158
1	5284	863.498434816996	0.03979352158
1	5290	863.748466720377	0.041201187356
1	5295	863.946044905351	0.03979352158
1	5300	864.955120663178	0.03979352158
1	5305	865.611805869069	0.03979352158
1	5310	865.754893757609	0.03979352158
1	5315	866.279386961569	0.03979352158
1	5320	869.230095304085	0.03979352158
1	5325	869.789866352646	0.03979352158
1	5330	872.448948120651	0.03979352158
1	5335	874.342329681899	0.03979352158
1	5340	874.633731753175	0.03979352158
1	5345	875.430112115355	0.03979352158
1	5352	875.766662657757	0.03979352158
1	5355	875.806456179337	0.042138232695
1	5360	876.227003345704	0.03979352158
1	5365	876.353244541852	0.03979352158
1	5370	877.776524112971	0.03979352158
1	5375	879.038479628449	0.03979352158
1	5380	879.314449154204	0.03979352158
1	5385	880.231613577348	0.03979352158
1	5390	882.228261258073	0.03979352158
1	5395	883.709799224003	0.03979352158
1	5400	885.085546452742	0.03979352158
1	5405	886.811578657625	0.03979352158
1	5410	889.396657580597	0.03979352158
1	5415	892.063225850888	0.03979352158
1	5420	892.152107896213	0.03979352158
1	5425	892.536957091397	0.03979352158
1	5430	895.536758502558	0.03979352158
1	5435	895.687293283668	0.03979352158
1	5441	895.937325187049	0.249066516784
1	5446	896.974805600703	0.03979352158
1	5451	897.134064106059	0.03979352158
1	5456	898.33553638364	0.03979352158
1	5461	899.111362613959	0.03979352158
1	5466	899.290931442	0.03979352158
1	5471	899.442808153938	0.03979352158
1	5476	899.488902419709	0.03979352158
1	5481	900.834891205014	0.03979352158
1	5486	904.294826822973	0.03979352158
1	5491	904.44712880219	0.03979352158
1	5496	904.955599894617	0.03979352158
1	5501	905.965193820845	0.03979352158
1	5506	907.457399125395	0.03979352158
1	5511	908.691465929873	0.03979352158
1	5516	908.82696500777	0.03979352158
1	5521	909.877004257998	0.03979352158
1	5526	914.599726673893	0.03979352158
1	5531	915.574840658511	0.03979352158
1	5536	915.90485227465	0.03979352158
1	5541	916.395521835367	0.03979352158
1	5546	916.566337765655	0.03979352158
1	5551	918.646646036164	0.03979352158
1	5556	921.792923148301	0.03979352158
1	5561	922.245998234881	0.03979352158
1	5566	922.869109410857	0.03979352158
1	5571	926.336582238589	0.03979352158
1	5576	927.884733932107	0.03979352158
1	5581	929.266023801998	0.03979352158
1	5586	929.899340189492	0.03979352158
1	5592	930.314177938477	0.03979352158
1	5597	930.674086378381	0.03979352158
1	5602	930.754004132346	0.03979352158
1	5607	931.867085203606	0.03979352158
1	5612	932.108078380209	0.03979352158
1	5617	933.605658028989	0.03979352158
1	5622	938.691412639906	0.03979352158
1	5627	939.511608238456	0.03979352158
1	5632	940.222539052549	0.03979352158
1	5637	940.890584525792	0.03979352158
1	5642	941.722547806298	0.03979352158
1	5647	942.64276488883	0.03979352158
1	5652	942.713386710448	0.03979352158
1	5657	944.245808959255	0.03979352158
1	5662	944.443118576863	0.03979352158
1	5667	946.482423141368	0.03979352158
1	5672	946.721521097589	0.03979352158
1	5677	950.503560571256	0.03979352158
1	5682	951.079798426817	0.03979352158
1	5687	951.735677363488	0.03979352158
1	5692	952.878116811776	0.03979352158
1	5697	953.308818825537	0.03979352158
1	5702	953.428578781299	0.03979352158
1	5707	957.516498540597	0.03979352158
1	5712	957.587855958828	0.03979352158
1	5717	958.194449595396	0.03979352158
1	5722	962.233116932381	0.03979352158
1	5727	962.721715980553	0.03979352158
1	5732	963.01404215433	0.03979352158
1	5737	963.784966257442	0.03979352158
1	5743	964.034998160823	0.092297518724
1	5748	964.844622850428	0.03979352158
1	5753	965.037642292175	0.03979352158
1	5758	965.860846706214	0.03979352158
1	5763	965.913866883786	0.03979352158
1	5768	966.429602679396	0.03979352158
1	5773	967.413450817623	0.03979352158
1	5780	968.776951391336	0.03979352158
1	5783	968.816744912916	0.047428926825
1	5788	971.007240770374	0.03979352158
1	5793	971.284473598141	0.03979352158
1	5798	971.862914876821	0.03979352158
1	5803	971.914302772235	0.03979352158
1	5808	972.259055615521	0.03979352158
1	5813	972.4168759002	0.03979352158
1	5818	974.83792535985	0.03979352158
1	5823	974.897491934974	0.03979352158
1	5828	976.071888764329	0.03979352158
1	5833	977.704056797741	0.03979352158
1	5838	979.97108686651	0.03979352158
1	5843	983.021320254535	0.03979352158
1	5848	984.12392685953	0.03979352158
1	5853	984.52799749585	0.03979352158
1	5858	985.051927742575	0.03979352158
1	5863	985.879029714255	0.03979352158
1	5868	986.352234206626	0.03979352158
1	5875	986.653153533263	0.03979352158
1	5878	986.692947054843	0.061945381262
1	5883	989.091860968337	0.03979352158
1	5888	989.800950396001	0.03979352158
1	5894	990.209959783651	0.03979352158
1	5899	990.557817083339	0.03979352158
1	5904	990.933896359956	0.03979352158
1	5909	991.09645977463	0.03979352158
1	5914	992.074610676923	0.03979352158
1	5919	992.684979742617	0.03979352158
1	5924	993.525079486436	0.03979352158
1	5929	994.10697618526	0.03979352158
1	5934	994.195750627638	0.03979352158
1	5939	996.487671803108	0.03979352158
1	5944	996.819119528984	0.03979352158
1	5949	996.929589351494	0.03979352158
1	5954	997.139739964637	0.03979352158
1	5959	997.748007565457	0.03979352158
1	5964	998.669655636899	0.03979352158
1	5969	998.915499855079	0.03979352158
1	5974	999.194301489789	0.03979352158
2	5	2.01778160195	0
2	10	2.105859974405	0
2	15	3.336835681267	0
2	20	3.402892342663	0
2	25	4.480128097432	0
2	30	6.860421415024	0
2	35	8.288858654251	0
2	40	9.866202235269	0
2	45	11.626072141736	0
2	50	14.153696894857	0
2	55	14.3350180431	0
2	60	14.50159659329	0
2	65	14.946514179043	0
2	70	16.876150048242	0
2	75	17.409872975272	0
2	80	17.816183036369	0
2	85	18.403293117561	0
2	90	18.92035103282	0
2	95	19.22353310637	0
2	100	19.318884382537	0
2	105	21.289050950277	0
2	110	21.632228230713	0
2	115	22.052327590419	0
2	122	23.173305921406	0
2	125	23.213099442986	0.038151676422
2	130	23.911361379712	0
2	135	25.138006458228	0
2	140	27.36001222953	0
2	145	27.986341366902	0
2	150	29.252385605441	0
2	156	29.713617804182	0
2	161	33.169739667528	0
2	168	33.614257168043	0
2	171	33.654050689623	0.005328198964
2	176	34.041672243063	0
2	183	34.726026291308	0
2	186	34.765819812888	0.02387103479
2	191	35.197231633016	0
2	196	35.643621254101	0
2	201	36.314249454761	0
2	206	36.658718912153	0
2	211	41.234747466345	0
2	216	42.047405207817	0
2	221	42.887790352796	0
2	226	43.664379236025	0
2	231	44.703985819287	0
2	236	45.654518045197	0
2	241	45.727296187026	0
2	246	47.45520191226	0
2	251	49.241135536738	0
2	256	51.784056144831	0
2	263	52.359075825164	0
2	266	52.398869346744	0.037372236771
2	271	52.731085815241	0
2	276	53.028877933871	0
2	281	56.929794996573	0
2	286	57.191873935637	0
2	291	57.5181149745	0
2	296	57.760436801206	0
2	301	58.006352059996	0
2	311	58.256383963377	0.160668263147
2	314	58.296177484957	0.159964138776
2	317	58.335971006537	0.18400010046
2	322	58.537572000995	0
2	327	58.798187523152	0
2	332	59.049463670643	0
2	337	59.77438183765	0
2	342	59.998791245619	0
2	347	60.421889877255	0
2	352	60.50336774935	0
2	357	62.276447692783	0
2	362	63.759500396401	0
2	367	64.385074355394	0
2	372	64.624771433421	0
2	377	65.353886591311	0
2	382	65.528011607421	0
2	387	66.535440397861	0
2	392	66.871002522531	0
2	397	68.012317329412	0
2	402	69.802526530792	0
2	407	71.615774884925	0
2	412	75.462373290359	0
2	417	78.300384565894	0
2	422	78.51444776947	0
2	429	81.281445962117	0
2	432	81.321239483697	0.038461240974
2	437	81.869885622774	0
2	442	81.989308116754	0
2	447	84.464546038101	0
2	452	84.790400224846	0
2	458	85.540216066638	0
2	463	85.796373647018	0
2	468	86.178155498055	0
2	473	88.872715911708	0
2	478	90.128602839515	0
2	483	90.334318633097	0
2	488	90.779082726942	0
2	493	91.311399960065	0
2	498	92.296452852918	0
2	503	92.493289022092	0
2	508	92.636164691127	0
2	513	93.573356336207	0
2	518	93.987509679404	0
2	523	94.290250579312	0
2	528	98.22161549518	0
2	533	99.11964326106	0
2	538	99.460966416415	0
2	543	99.922099984383	0
2	548	103.449346743585	0
2	553	103.800112101438	0
2	558	105.351370640488	0
2	563	105.721502150698	0
2	568	106.118598099794	0
2	573	106.60816876285	0
2	578	107.53776122771	0
2	583	107.852923542839	0
2	588	108.17797337447	0
2	593	108.486797261898	0
2	598	108.719201682189	0
2	603	109.497231636903	0
2	609	110.717267905554	0
2	614	111.590875518154	0
2	619	112.535071016447	0
2	624	112.983490918633	0
2	629	115.025243241298	0
2	634	117.657452505182	0
2	639	117.838692252718	0
2	644	119.146531906828	0
2	649	119.583113524835	0
2	654	120.835959610709	0
2	661	121.112027294463	0
2	664	121.151820816043	0.000398803749
2	669	121.521630448738	0
2	674	121.99582449523	0
2	679	122.742416831217	0
2	684	122.842977445484	0
2	689	124.238936132952	0
2	694	124.541469725421	0
2	699	124.68274794118	0
2	704	125.038708182375	0
2	709	128.987817237082	0
2	714	130.035676341936	0
2	719	130.271231237633	0
2	724	130.508377389918	0
2	729	131.402731332463	0
2	734	134.639417789517	0
2	741	135.307780195201	0
2	744	135.347573716781	0.039308562291
2	749	137.166414816852	0
2	754	138.312454570409	0
2	764	138.56248647379	0.123954482475
2	767	138.60227999537	0.129781939246
2	770	138.64207351695	0.044702176138
2	775	139.312251525453	0
2	780	139.705928706112	0
2	785	139.864823813899	0
2	790	140.460561616843	0
2	795	140.700921389235	0
2	800	141.275676300883	0
2	807	142.809755957605	0
2	810	142.849549479185	0.006144784431
2	815	143.455703855873	0
2	820	143.918029951136	0
2	825	144.182307892816	0
2	830	144.303545964953	0
2	835	145.275029822811	0
2	840	145.658975659319	0
2	845	148.640042542743	0
2	850	150.277190508233	0
2	855	150.738127769615	0
2	860	150.953610635728	0
2	865	151.388913361452	0
2	870	153.174201403992	0
2	875	153.839006317561	0
2	880	154.002783497184	0
2	885	154.947456591174	0
2	890	155.54460977137	0
2	895	156.293655572342	0
2	900	157.195629835895	0
2	905	157.855728910298	0
2	911	158.762872361966	0
2	916	159.647421508426	0
2	921	159.775838526368	0
2	926	160.420432672242	0
2	931	160.530216172864	0
2	936	161.373142338791	0
2	941	165.765014319367	0
2	946	165.856023078944	0
2	951	167.143714650495	0
2	956	168.107519114678	0
2	961	168.389143575101	0
2	966	168.666304206039	0
2	973	168.888419981161	0
2	976	168.928213502741	0.037054811926
2	981	169.084404440723	0
2	988	170.70429165891	0
2	991	170.74408518049	0.010225052572
2	996	171.517617190885	0
2	1003	172.606426521835	0
2	1008	172.646220043415	0.014563426566
2	1011	172.686013564995	0.019174754449
2	1016	172.866906387674	0
2	1021	173.000862023564	0
2	1026	173.453809419375	0
2	1031	174.720342457692	0
2	1036	175.030519062058	0
2	1041	175.630104931486	0
2	1046	176.350434191224	0
2	1051	177.60863348608	0
2	1056	179.651128284741	0
2	1064	180.405843335744	0
2	1067	180.445636857324	0.03641544995
2	1072	181.443501188634	0
2	1079	181.486062196663	0
2	1082	181.525855718243	0.007201001851
2	1087	181.719720591894	0
2	1092	181.953873163817	0
2	1097	182.068614606023	0
2	1102	182.582286031952	0
2	1107	182.876174849841	0
2	1112	183.173078986676	0
2	1117	184.106153114889	0
2	1124	184.240071957709	0
2	1127	184.279865479289	0.013019459948
2	1132	186.524797779336	0
2	1137	189.64866830673	0
2	1142	190.765292888451	0
2	1147	191.919883701859	0
2	1152	192.076463097235	0
2	1157	192.169820900187	0
2	1162	193.941494327684	0
2	1167	196.381815645366	0
2	1172	198.374982178533	0
2	1177	199.453387504628	0
2	1182	199.505431818932	0
2	1187	200.695578333012	0
2	1192	201.311317311325	0
2	1197	201.444115396948	0
2	1202	201.822309342073	0
2	1207	205.74953052037	0
2	1213	206.891525452783	0
2	1218	208.955484321017	0
2	1223	209.018733474089	0
2	1230	209.222716326229	0
2	1233	209.262509847809	0.03611148308
2	1238	209.438058717973	0
2	1243	209.875866206601	0
2	1248	210.455127017226	0
2	1253	210.618364854839	0
2	1258	210.913580925832	0
2	1263	211.716475926869	0
2	1268	213.529441033089	0
2	1273	213.936835283066	0
2	1278	214.082364057081	0
2	1283	214.44248079005	0
2	1288	215.912780340062	0
2	1293	216.701818719676	0
2	1298	219.164442508995	0
2	1305	219.311742293256	0
2	1308	219.351535814836	0.022503685644
2	1313	219.874064917905	0
2	1318	220.983581094865	0
2	1323	221.027629542943	0
2	1328	221.307012153338	0
2	1333	222.018363265048	0
2	1338	222.675520484233	0
2	1343	223.033445910708	0
2	1348	224.147521454606	0
2	1353	224.441200288239	0
2	1358	224.80588793054	0
2	1364	226.192807603317	0
2	1369	226.420849619944	0
2	1374	227.326174696327	0
2	1379	227.634027629052	0
2	1384	228.054631312811	0
2	1389	229.870990903822	0
2	1394	230.054935294987	0
2	1399	231.173654695611	0
2	1404	232.50756692997	0
2	1409	232.915991378031	0
2	1414	232.978786459249	0
2	1419	233.357449632491	0
2	1424	234.135274900813	0
2	1429	234.646251206443	0
2	1434	234.894296722812	0
2	1439	235.415333671464	0
2	1444	236.16681918855	0
2	1449	236.253262908283	0
2	1454	237.740588537947	0
2	1459	238.818858810677	0
2	1464	238.936217533835	0
2	1469	239.583693913495	0
2	1474	241.157186601321	0
2	1479	242.861060096245	0
2	1484	243.985217926464	0
2	1489	248.888067262291	0
2	1494	248.957175278219	0
2	1499	249.110279015788	0
2	1504	249.207098685689	0
2	1509	249.519525162834	0
2	1515	249.769557066215	0.170356818957
2	1520	249.870028299113	0
2	1525	250.460085777098	0
2	1530	251.885575719856	0
2	1535	253.558891338943	0
2	1540	254.004136756197	0
2	1545	254.250919547346	0
2	1550	255.696930939088	0
2	1555	256.3218833962	0
2	1560	258.880225665548	0
2	1565	259.18081900922	0
2	1570	259.417460180566	0
2	1575	260.046817136438	0
2	1580	260.611334162444	0
2	1585	261.233696810031	0
2	1590	261.481969775304	0
2	1595	264.168777937216	0
2	1600	264.932709346758	0
2	1605	266.192132324	0
2	1610	266.950234200853	0
2	1615	268.154126774414	0
2	1620	268.217423686177	0
2	1625	268.495015004089	0
2	1630	269.08359755197	0
2	1635	269.228468840367	0
2	1640	269.825362504544	0
2	1645	270.2546859348	0
2	1650	270.772899298969	0
2	1657	272.248211384623	0
2	1660	272.288004906203	0.035851039171
2	1666	273.506248841327	0
2	1671	276.800679892553	0
2	1676	279.340472944994	0
2	1681	280.326045569776	0
2	1686	281.388635311542	0
2	1691	282.022028075447	0
2	1696	283.355951252864	0
2	1701	285.091814355571	0
2	1706	285.351610887025	0
2	1711	286.464283073263	0
2	1716	287.827734458095	0
2	1721	288.197927259308	0
2	1726	289.62108862684	0
2	1731	289.687615779552	0
2	1736	290.223610528747	0
2	1741	290.387685530344	0
2	1746	290.585874191791	0
2	1751	291.364828139442	0
2	1756	291.965453112582	0
2	1761	292.750133257093	0
2	1766	292.93310801396	0
2	1771	294.356655441581	0
2	1776	295.236737833727	0
2	1781	295.818320706065	0
2	1786	295.932651722902	0
2	1791	298.055381670794	0
2	1796	299.666712003109	0
2	1801	299.885708127712	0
2	1806	300.946786511668	0
2	1811	301.003874714048	0
2	1817	301.299300120159	0
2	1822	302.561692764962	0
2	1827	302.89814066632	0
2	1832	303.588287448236	0
2	1839	303.924748906692	0
2	1842	303.964542428272	0.036656294625
2	1847	304.900759233421	0
2	1852	306.97279962645	0
2	1857	307.142053274508	0
2	1862	308.3031192224	0
2	1867	310.180213437489	0
2	1872	312.395518440444	0
2	1877	312.503676081402	0
2	1882	313.098586134828	0
2	1887	313.167849875482	0
2	1892	313.563860471364	0
2	1897	313.795923953166	0
2	1902	314.076948317689	0
2	1907	315.496645263767	0
2	1912	315.873945966278	0
2	1917	316.456691233097	0
2	1922	317.496831397039	0
2	1927	317.635764075695	0
2	1932	318.48312915054	0
2	1937	320.534521932784	0
2	1942	322.891143300476	0
2	1947	324.327566659963	0
2	1952	325.59537091056	0
2	1957	327.806510599347	0
2	1962	328.854227476003	0
2	1968	329.104259379384	0.200915810042
2	1973	329.673468480967	0
2	1978	330.726713575664	0
2	1983	331.278416274259	0
2	1988	331.444383387492	0
2	1993	332.400335296241	0
2	1998	332.7724975727	0
2	2003	333.955221827941	0
2	2008	335.138820626298	0
2	2013	335.613561828945	0
2	2018	336.267455516897	0
2	2023	336.741305402618	0
2	2028	336.877896470445	0
2	2033	337.74850773682	0
2	2038	337.947219090553	0
2	2043	338.468543042512	0
2	2048	339.349540120745	0
2	2053	339.565016286746	0
2	2058	340.883831779578	0
2	2063	341.069411464324	0
2	2068	341.611025959273	0
2	2073	342.673245016721	0
2	2078	343.351015921275	0
2	2083	346.096622954963	0
2	2088	347.315259718469	0
2	2095	347.631994707154	0
2	2098	347.671788228734	0.014506280748
2	2103	347.771111341162	0
2	2108	348.469116104062	0
2	2113	351.893075354331	0
2	2119	352.240166530834	0
2	2124	354.247564187637	0
2	2129	354.820726732957	0
2	2134	355.429941459818	0
2	2139	355.712244538588	0
2	2144	355.783129998544	0
2	2149	356.146149687254	0
2	2154	358.175030893931	0
2	2159	359.949756964942	0
2	2164	360.567909862793	0
2	2169	361.023275044951	0
2	2176	361.20209202519	0
2	2179	361.24188554677	0.007867888983
2	2184	362.892470627908	0
2	2189	363.782420640281	0
2	2194	364.42715270143	0
2	2199	365.184236372416	0
2	2204	366.221712565116	0
2	2209	366.391363647423	0
2	2214	369.679588484034	0
2	2219	370.229234656721	0
2	2224	372.798938326074	0
2	2229	373.0988999312	0
2	2234	373.231709369114	0
2	2239	373.352423261024	0
2	2244	373.9169766527	0
2	2249	377.015925477021	0
2	2254	377.435559171836	0
2	2259	379.590343994323	0
2	2264	379.700249848413	0
2	2270	380.191710204012	0
2	2275	381.463327619561	0
2	2280	382.179188534141	0
2	2285	382.259144748199	0
2	2290	383.089383047671	0
2	2295	383.418349157456	0
2	2300	383.615294951554	0
2	2307	385.944245116253	0
2	2310	385.984038637833	0.003971371841
2	2315	386.575256520672	0
2	2320	387.225487506429	0
2	2325	387.894033248029	0
2	2330	387.933865892792	0
2	2335	388.209505748774	0
2	2340	388.977389911152	0
2	2345	389.346895408264	0
2	2350	391.024704951158	0
2	2355	391.325719137024	0
2	2360	393.367618825573	0
2	2365	395.289298101712	0
2	2370	395.634465673403	0
2	2375	395.696508769992	0
2	2380	395.853760558825	0
2	2385	395.944485892564	0
2	2390	396.837887035671	0
2	2395	397.253256744814	0
2	2400	398.859006109297	0
2	2405	400.294038889432	0
2	2410	400.36692320492	0
2	2415	403.220344459087	0
2	2421	403.989448310511	0
2	2426	404.39380097758	0
2	2431	404.754942574626	0
2	2436	405.56408820827	0
2	2441	407.978060891351	0
2	2446	408.199113291849	0
2	2451	410.974568931308	0
2	2456	411.869932935065	0
2	2461	414.382710413551	0
2	2466	415.159669105326	0
2	2471	415.380294974206	0
2	2476	416.466857716996	0
2	2481	416.77391556145	0
2	2488	419.529379147045	0
2	2491	419.569172668625	0.017407771404
2	2496	424.080122475957	0
2	2501	424.345382819098	0
2	2506	424.896363375747	0
2	2511	425.633411131671	0
2	2516	426.042110093292	0
2	2521	426.360562097176	0
2	2526	426.495399753305	0
2	2531	426.949441449929	0
2	2536	426.991436882845	0
2	2541	427.12025651346	0
2	2548	427.169449997393	0
2	2551	427.209243518973	0.008367139529
2	2556	427.347544479008	0
2	2561	428.555763859925	0
2	2566	428.790711556266	0
2	2572	430.813488652435	0
2	2577	431.414922356313	0
2	2582	431.767854656416	0
2	2587	431.815818129408	0
2	2592	434.82599451882	0
2	2597	436.075426188241	0
2	2602	436.648015740675	0
2	2607	437.022387715145	0
2	2612	437.478061701606	0
2	2617	438.28408009262	0
2	2622	438.736349848357	0
2	2627	438.810351708051	0
2	2632	440.076409479491	0
2	2637	440.218791055113	0
2	2642	440.572220561366	0
2	2647	440.909213721344	0
2	2652	441.307815644981	0
2	2657	441.58597589701	0
2	2662	445.193563713417	0
2	2667	445.255491653719	0
2	2672	446.541121111976	0
2	2677	447.386689411015	0
2	2682	447.678591183685	0
2	2687	448.148411040642	0
2	2692	448.946192698761	0
2	2697	449.423616503688	0
2	2704	450.249554722465	0
2	2709	450.289348244045	0.031877684296
2	2712	450.329141765625	6.2464187e-05
2	2717	451.191646177195	0
2	2723	451.441678080576	0.179478720284
2	2728	451.793386151362	0
2	2733	452.316405982978	0
2	2738	452.835086059602	0
2	2743	454.837583103938	0
2	2748	455.504727457209	0
2	2753	457.244181609426	0
2	2758	457.72596151836	0
2	2763	458.188046018641	0
2	2768	458.468531888932	0
2	2773	458.595160853191	0
2	2778	459.298403298108	0
2	2783	459.998445058556	0
2	2788	460.436576195622	0
2	2793	463.408743365747	0
2	2798	463.714835720838	0
2	2803	464.229880413111	0
2	2808	465.16391393763	0
2	2813	466.11383822607	0
2	2818	466.455768304179	0
2	2823	466.546187208272	0
2	2828	467.063940028171	0
2	2833	470.182870448497	0
2	2838	470.392014937183	0
2	2843	471.916366516171	0
2	2848	472.484450889309	0
2	2853	472.92023328385	0
2	2858	473.659940099653	0
2	2863	474.715767837168	0
2	2868	475.104531606735	0
2	2874	475.379735122111	0
2	2879	479.712406713369	0
2	2884	480.098226314729	0
2	2889	481.241880732924	0
2	2894	481.454825778924	0
2	2899	481.959357965526	0
2	2904	482.148963824215	0
2	2909	482.605396712091	0
2	2914	483.471422536805	0
2	2919	483.975280646279	0
2	2924	484.120090743019	0
2	2929	484.296964784843	0
2	2934	484.836896494959	0
2	2939	485.420199433006	0
2	2944	486.519987746923	0
2	2949	486.623477999145	0
2	2954	486.772752221897	0
2	2959	486.917997378335	0
2	2964	487.119826102283	0
2	2969	488.521126619468	0
2	2974	489.789593551961	0
2	2979	489.978923010973	0
2	2984	490.501152719074	0
2	2989	491.379040157869	0
2	2994	491.473592537512	0
2	2999	492.134376206774	0
2	3004	493.4310131129	0
2	3009	493.579152788146	0
2	3014	494.312242894042	0
2	3019	494.937692602698	0
2	3025	495.859349227704	0
2	3030	496.313024126616	0
2	3035	496.540658479565	0
2	3040	496.928900602515	0
2	3045	497.827726935254	0
2	3050	500.05298299848	0
2	3055	500.511883997288	0
2	3060	501.354561766037	0
2	3065	501.437529500454	0
2	3070	501.72324475943	0
2	3075	501.95958569118	0
2	3080	502.139028922811	0
2	3087	502.312359587128	0
2	3090	502.352153108708	0.011007093109
2	3095	502.970705755325	0
2	3100	503.334419090008	0
2	3105	503.897514261946	0
2	3110	506.696803572702	0
2	3115	507.597625040532	0
2	3120	508.29751283982	0
2	3125	509.952698385389	0
2	3130	511.624623088872	0
2	3135	512.230373202489	0
2	3140	512.708070401174	0
2	3145	513.353419159446	0
2	3150	513.840031047358	0
2	3155	514.104664194521	0
2	3160	514.845328026911	0
2	3165	515.454229113042	0
2	3170	516.294667427721	0
2	3176	516.676697796465	0
2	3181	517.874293113932	0
2	3186	518.497774700183	0
2	3191	518.81706361768	0
2	3196	521.657470985453	0
2	3201	522.86355358803	0
2	3206	523.451227407023	0
2	3211	524.130919593287	0
2	3216	524.44689263365	0
2	3221	525.045394722374	0
2	3226	527.463621848176	0
2	3233	531.132107010606	0
2	3236	531.171900532186	0.028671039066
2	3241	531.399809454242	0
2	3246	531.702155269986	0
2	3251	531.758943244912	0
2	3256	533.27719035657	0
2	3261	534.560107779058	0
2	3266	535.521719889252	0
2	3271	535.780977459916	0
2	3276	536.454270768607	0
2	3281	537.139549322242	0
2	3286	539.498832365102	0
2	3291	539.786430402044	0
2	3296	540.693677725596	0
2	3301	542.313518472361	0
2	3306	542.555367189173	0
2	3311	542.676108278859	0
2	3316	543.098071857375	0
2	3321	545.615698584206	0
2	3327	546.443422770737	0
2	3332	547.281079681272	0
2	3337	548.125393398813	0
2	3342	549.143155626005	0
2	3347	550.381400061936	0
2	3352	550.998196885653	0
2	3359	551.177726864114	0
2	3362	551.217520385694	0.034908812416
2	3367	554.123399784188	0
2	3372	554.622480465061	0
2	3377	555.27762417685	0
2	3382	555.953171509894	0
2	3387	556.371844579751	0
2	3392	556.477590283779	0
2	3397	558.506790505056	0
2	3402	559.381464429356	0
2	3407	560.533768727491	0
2	3412	565.003423663795	0
2	3417	565.207743155537	0
2	3422	566.206369605557	0
2	3427	568.723569581763	0
2	3432	569.095396041383	0
2	3437	569.605079734281	0
2	3442	570.631192321002	0
2	3447	573.986484266154	0
2	3452	574.770531055686	0
2	3457	576.276607892433	0
2	3462	576.730742703834	0
2	3467	576.879326373222	0
2	3472	577.036830346466	0
2	3478	577.596937793743	0
2	3485	578.263738369102	0
2	3488	578.303531890682	0.032758558009
2	3493	579.251891322381	0
2	3498	580.246299068696	0
2	3503	580.418138219607	0
2	3508	582.803176120048	0
2	3513	582.846592773425	0
2	3518	582.936930708053	0
2	3523	583.280226302242	0
2	3528	584.665297747273	0
2	3533	585.151808855833	0
2	3538	586.826027340181	0
2	3545	587.406892440154	0
2	3548	587.446685961734	0.03464521519
2	3553	588.157708547588	0
2	3558	588.852516165792	0
2	3563	589.96349264947	0
2	3568	591.751436294966	0
2	3573	592.86945947216	0
2	3578	593.707138639092	0
2	3583	593.851844752663	0
2	3588	595.036329497009	0
2	3593	596.09410604425	0
2	3598	596.540652563132	0
2	3603	597.520779314497	0
2	3608	597.969437563629	0
2	3613	603.023718903848	0
2	3618	603.679187494022	0
2	3623	605.049609929837	0
2	3631	605.299641833218	0.178392039699
2	3634	605.339435354798	0.112956090299
2	3639	605.80710081511	0
2	3644	606.566656126723	0
2	3649	608.669440422097	0
2	3654	609.41387110246	0
2	3659	610.844543040371	0
2	3664	611.172417230701	0
2	3669	612.031042232532	0
2	3674	612.716384969593	0
2	3679	612.817799396898	0
2	3684	614.892381109919	0
2	3689	615.141487077757	0
2	3694	615.978503477266	0
2	3699	616.245776287053	0
2	3706	618.185658390476	0
2	3709	618.225451912056	0.025081237814
2	3714	618.441840514598	0
2	3719	618.790246056043	0
2	3724	620.514195841708	0
2	3729	622.151147761042	0
2	3734	623.065960930716	0
2	3739	623.382363885555	0
2	3744	623.897413587299	0
2	3749	624.874740540445	0
2	3754	624.996770603297	0
2	3759	626.889401565911	0
2	3764	627.608137283465	0
2	3769	627.792832772022	0
2	3774	628.763148299454	0
2	3780	629.547932168806	0
2	3785	630.064597689787	0
2	3792	630.493005072051	0
2	3795	630.532798593631	0.018893864158
2	3800	631.875810802305	0
2	3805	632.550796931837	0
2	3810	632.712543982321	0
2	3815	633.160316930586	0
2	3820	634.343394341273	0
2	3825	634.693426605439	0
2	3830	635.860750053705	0
2	3835	636.068044204761	0
2	3842	637.183165267184	0
2	3845	637.222958788764	0.014310929912
2	3850	638.24212288615	0
2	3855	638.836679622018	0
2	3860	639.783013323364	0
2	3865	639.959669465411	0
2	3870	641.711085592911	0
2	3875	642.014677442314	0
2	3880	642.177449904718	0
2	3885	643.139834159391	0
2	3890	643.329284975459	0
2	3895	643.921382918685	0
2	3900	644.111054018475	0
2	3905	645.594839643186	0
2	3910	646.653841259786	0
2	3915	647.150578887842	0
2	3920	647.316937747439	0
2	3925	648.463172967188	0
2	3931	648.975238935266	0
2	3936	649.451899560896	0
2	3941	651.092497103822	0
2	3946	651.844694822395	0
2	3951	653.048708503887	0
2	3956	653.095124753383	0
2	3961	653.515518487466	0
2	3966	654.31309135879	0
2	3971	654.5219129926	0
2	3976	655.468599372503	0
2	3981	657.150999640779	0
2	3986	657.234462266249	0
2	3991	657.810672878262	0
2	3996	658.21604977429	0
2	4001	658.277469690624	0
2	4006	658.328515610644	0
2	4011	658.457844866446	0
2	4016	658.966271073504	0
2	4021	659.388025769534	0
2	4026	659.882827385566	0
2	4031	660.83294767039	0
2	4036	660.874925574238	0
2	4041	662.662382124841	0
2	4046	664.13312218166	0
2	4051	664.41204867011	0
2	4056	664.639668408742	0
2	4061	666.223601770714	0
2	4066	668.172731181887	0
2	4071	669.084892468351	0
2	4076	669.170363871414	0
2	4082	670.042857890052	0
2	4087	671.796749283387	0
2	4092	672.001671212055	0
2	4097	674.869298669068	0
2	4102	675.864321441852	0
2	4107	676.472933647355	0
2	4112	677.283196574209	0
2	4117	677.567868981405	0
2	4122	677.617859761966	0
2	4127	678.588354189918	0
2	4132	679.53590582169	0
2	4137	682.775844636681	0
2	4142	683.83753019564	0
2	4147	684.082842758524	0
2	4152	684.183045814494	0
2	4157	685.531228625271	0
2	4162	685.768998325346	0
2	4167	687.932484551851	0
2	4172	689.096633345633	0
2	4177	691.964277183765	0
2	4182	693.320700381439	0
2	4187	693.857849611491	0
2	4194	695.740977470167	0
2	4197	695.780770991747	0.023439589598
2	4202	696.070198589506	0
2	4207	696.378320656093	0
2	4212	697.00576473395	0
2	4217	698.508224493922	0
2	4222	700.004418267983	0
2	4227	700.355811197982	0
2	4233	700.804579074325	0
2	4238	701.228232274674	0
2	4243	701.616411610106	0
2	4248	701.700225789189	0
2	4253	702.259863403167	0
2	4258	704.078092298902	0
2	4263	704.213233721075	0
2	4268	706.299696550318	0
2	4273	708.44136653437	0
2	4278	709.33906273037	0
2	4283	709.626878742966	0
2	4288	710.024575711745	0
2	4293	710.524881130729	0
2	4298	710.609364230529	0
2	4303	710.74886401088	0
2	4308	711.345198364654	0
2	4315	712.622082507207	0
2	4318	712.661876028787	0.031344715119
2	4323	717.046051452875	0
2	4328	717.594714754153	0
2	4333	719.083732153372	0
2	4338	719.877168503216	0
2	4343	719.985758020699	0
2	4348	720.081975634271	0
2	4353	721.084563779474	0
2	4358	721.929654793346	0
2	4363	722.214373443425	0
2	4368	724.32491454122	0
2	4373	724.79190971522	0
2	4378	725.753078254889	0
2	4384	726.00311015827	0.206953743698
2	4389	731.920252640995	0
2	4394	732.437536869907	0
2	4399	732.653645814994	0
2	4404	733.504778432608	0
2	4409	735.202203901296	0
2	4414	735.650163964769	0
2	4419	736.053454427282	0
2	4424	736.369250094116	0
2	4429	737.659778205734	0
2	4434	738.600513038806	0
2	4439	738.725618830534	0
2	4444	739.690552286803	0
2	4449	740.752415422089	0
2	4454	741.137310235754	0
2	4459	741.429329916677	0
2	4464	741.607193340189	0
2	4469	743.448550408389	0
2	4474	743.578393516103	0
2	4479	745.237008082655	0
2	4484	746.03585403179	0
2	4489	746.758352925735	0
2	4494	747.133898780614	0
2	4499	747.207311809659	0
2	4504	748.262095599843	0
2	4509	749.72958754056	0
2	4514	752.711868261513	0
2	4519	752.87282938686	0
2	4524	753.571242276162	0
2	4529	754.333107953826	0
2	4535	755.059073291308	0
2	4540	755.49166859399	0
2	4545	757.607425689559	0
2	4550	757.659990285231	0
2	4555	758.007510100627	0
2	4560	758.476303568483	0
2	4565	758.894585375694	0
2	4570	759.1102205203	0
2	4577	759.69722693294	0
2	4580	759.73702045452	0.036920068462
2	4587	761.047737165467	0
2	4590	761.087530687047	0.037772831658
2	4595	761.280842822799	0
2	4600	761.429248847502	0
2	4605	762.625362759902	0
2	4610	762.688729696625	0
2	4615	764.736339209168	0
2	4620	765.096079521012	0
2	4625	765.950113770054	0
2	4630	766.34134103518	0
2	4635	766.564435445664	0
2	4640	766.718275437441	0
2	4647	768.252659571598	0
2	4650	768.292453093178	0.020179377797
2	4655	768.443290971899	0
2	4660	768.809729258983	0
2	4665	768.970946596186	0
2	4670	769.285949629782	0
2	4675	769.684430838689	0
2	4680	770.456349392586	0
2	4686	771.514060538879	0
2	4691	772.097796528685	0
2	4696	772.323267300731	0
2	4701	772.3737078421	0
2	4706	773.137145487686	0
2	4711	773.832543428631	0
2	4716	776.469343715768	0
2	4721	777.350206668965	0
2	4726	777.675854890232	0
2	4731	778.794892926244	0
2	4738	779.764114778304	0
2	4741	779.803908299884	0.018566236532
2	4746	779.974633760612	0
2	4751	780.407080499357	0
2	4756	782.896144673962	0
2	4761	783.321412235148	0
2	4766	784.007663591264	0
2	4773	784.618115953153	0
2	4776	784.657909474733	0.019224107696
2	4781	786.931135019084	0
2	4786	786.988920521516	0
2	4791	787.413360909641	0
2	4796	788.94867443677	0
2	4801	789.267128850915	0
2	4806	790.051232412319	0
2	4811	790.820463056556	0
2	4816	791.468816172611	0
2	4821	791.672219879505	0
2	4826	792.043724625406	0
2	4831	792.394514388597	0
2	4837	792.644901963192	0
2	4842	793.334303341404	0
2	4847	794.703523810823	0
2	4852	795.434054865131	0
2	4857	796.302624228	0
2	4862	796.711491154167	0
2	4867	796.844785488142	0
2	4872	798.691600776447	0
2	4877	799.751554803209	0
2	4882	800.271655138721	0
2	4887	800.78394689851	0
2	4892	801.045103031545	0
2	4897	802.145955507233	0
2	4902	802.549748401359	0
2	4907	803.22062147615	0
2	4912	803.298435730628	0
2	4917	805.080293667197	0
2	4922	805.58306514942	0
2	4927	806.310137946898	0
2	4932	807.922453412539	0
2	4937	808.203285337706	0
2	4942	808.279001499898	0
2	4947	809.107389249754	0
2	4952	810.684910600109	0
2	4957	811.932168138434	0
2	4962	815.965654520283	0
2	4967	816.938063888794	0
2	4972	818.373565788738	0
2	4977	818.639523862214	0
2	4982	818.807478252402	0
2	4988	819.057510155783	0.033980497992
2	4993	819.440865992343	0
2	4998	819.684526093525	0
2	5003	819.734109202591	0
2	5008	820.631461709318	0
2	5013	820.938086385294	0
2	5018	824.934159205367	0
2	5023	825.057005782265	0
2	5028	825.651699703873	0
2	5033	826.220464288131	0
2	5038	826.273466121144	0
2	5043	827.299687934011	0
2	5048	827.930076123893	0
2	5053	829.3132794349	0
2	5058	829.688252982623	0
2	5063	829.898182792917	0
2	5068	831.378884487696	0
2	5073	831.525962680824	0
2	5078	831.611198018015	0
2	5083	834.843720721263	0
2	5088	835.312667640427	0
2	5093	835.448922303925	0
2	5098	836.234660549732	0
2	5103	837.223069658437	0
2	5108	837.367128826766	0
2	5113	837.970196201237	0
2	5118	839.394372680821	0
2	5123	839.700442242099	0
2	5128	839.75173470988	0
2	5133	841.15483717256	0
2	5139	841.625926849267	0
2	5144	841.867017022708	0
2	5149	842.726603243742	0
2	5154	844.190464692096	0
2	5159	844.418537141219	0
2	5164	844.56905517939	0
2	5169	845.206924622284	0
2	5174	845.660515478165	0
2	5179	846.205958164516	0
2	5184	847.149490582426	0
2	5189	847.542250180682	0
2	5194	847.929315849324	0
2	5199	848.437052055314	0
2	5204	849.539789210674	0
2	5209	851.608229019863	0
2	5214	854.061025212782	0
2	5219	855.497792152021	0
2	5224	855.972262667169	0
2	5229	857.978046737527	0
2	5234	858.290201821248	0
2	5239	859.168318867033	0
2	5244	859.997811348532	0
2	5251	860.17661094918	0
2	5254	860.21640447076	0.031214858909
2	5259	860.597100644775	0
2	5264	860.891932162815	0
2	5269	861.778363256166	0
2	5274	861.92678568234	0
2	5279	863.367288139731	0
2	5284	863.498434816996	0
2	5290	863.748466720377	0.001407665776
2	5295	863.946044905351	0
2	5300	864.955120663178	0
2	5305	865.611805869069	0
2	5310	865.754893757609	0
2	5315	866.279386961569	0
2	5320	869.230095304085	0
2	5325	869.789866352646	0
2	5330	872.448948120651	0
2	5335	874.342329681899	0
2	5340	874.633731753175	0
2	5345	875.430112115355	0
2	5352	875.766662657757	0
2	5355	875.806456179337	0.002344711115
2	5360	876.227003345704	0
2	5365	876.353244541852	0
2	5370	877.776524112971	0
2	5375	879.038479628449	0
2	5380	879.314449154204	0
2	5385	880.231613577348	0
2	5390	882.228261258073	0
2	5395	883.709799224003	0
2	5400	885.085546452742	0
2	5405	886.811578657625	0
2	5410	889.396657580597	0
2	5415	892.063225850888	0
2	5420	892.152107896213	0
2	5425	892.536957091397	0
2	5430	895.536758502558	0
2	5435	895.687293283668	0
2	5441	895.937325187049	0.209272995204
2	5446	896.974805600703	0
2	5451	897.134064106059	0
2	5456	898.33553638364	0
2	5461	899.111362613959	0
2	5466	899.290931442	0
2	5471	899.442808153938	0
2	5476	899.488902419709	0
2	5481	900.834891205014	0
2	5486	904.294826822973	0
2	5491	904.44712880219	0
2	5496	904.955599894617	0
2	5501	905.965193820845	0
2	5506	907.457399125395	0
2	5511	908.691465929873	0
2	5516	908.82696500777	0
2	5521	909.877004257998	0
2	5526	914.599726673893	0
2	5531	915.574840658511	0
2	5536	915.90485227465	0
2	5541	916.395521835367	0
2	5546	916.566337765655	0
2	5551	918.646646036164	0
2	5556	921.792923148301	0
2	5561	922.245998234881	0
2	5566	922.869109410857	0
2	5571	926.336582238589	0
2	5576	927.884733932107	0
2	5581	929.266023801998	0
2	5586	929.899340189492	0
2	5592	930.314177938477	0
2	5597	930.674086378381	0
2	5602	930.754004132346	0
2	5607	931.867085203606	0
2	5612	932.108078380209	0
2	5617	933.605658028989	0
2	5622	938.691412639906	0
2	5627	939.511608238456	0
2	5632	940.222539052549	0
2	5637	940.890584525792	0
2	5642	941.722547806298	0
2	5647	942.64276488883	0
2	5652	942.713386710448	0
2	5657	944.245808959255	0
2	5662	944.443118576863	0
2	5667	946.482423141368	0
2	5672	946.721521097589	0
2	5677	950.503560571256	0
2	5682	951.079798426817	0
2	5687	951.735677363488	0
2	5692	952.878116811776	0
2	5697	953.308818825537	0
2	5702	953.428578781299	0
2	5707	957.516498540597	0
2	5712	957.587855958828	0
2	5717	958.194449595396	0
2	5722	962.233116932381	0
2	5727	962.721715980553	0
2	5732	963.01404215433	0
2	5737	963.784966257442	0
2	5743	964.034998160823	0.052503997144
2	5748	964.844622850428	0
2	5753	965.037642292175	0
2	5758	965.860846706214	0
2	5763	965.913866883786	0
2	5768	966.429602679396	0
2	5773	967.413450817623	0
2	5780	968.776951391336	0
2	5783	968.816744912916	0.007635405245
2	5788	971.007240770374	0
[...]
7	2548	427.169449997393	0
7	2551	427.209243518973	0
7	2556	427.347544479008	0
7	2561	428.555763859925	0
7	2566	428.790711556266	0
7	2572	430.813488652435	0
7	2577	431.414922356313	0
7	2582	431.767854656416	0
7	2587	431.815818129408	0
7	2592	434.82599451882	0
7	2597	436.075426188241	0
7	2602	436.648015740675	0
7	2607	437.022387715145	0
7	2612	437.478061701606	0
7	2617	438.28408009262	0
7	2622	438.736349848357	0
7	2627	438.810351708051	0
7	2632	440.076409479491	0
7	2637	440.218791055113	0
7	2642	440.572220561366	0
7	2647	440.909213721344	0
7	2652	441.307815644981	0
7	2657	441.58597589701	0
7	2662	445.193563713417	0
7	2667	445.255491653719	0
7	2672	446.541121111976	0
7	2677	447.386689411015	0
7	2682	447.678591183685	0
7	2687	448.148411040642	0
7	2692	448.946192698761	0
7	2697	449.423616503688	0
7	2704	450.249554722465	0
7	2709	450.289348244045	0
7	2712	450.329141765625	0
7	2717	451.191646177195	0
7	2723	451.441678080576	0
7	2728	451.793386151362	0
7	2733	452.316405982978	0
7	2738	452.835086059602	0
7	2743	454.837583103938	0
7	2748	455.504727457209	0
7	2753	457.244181609426	0
7	2758	457.72596151836	0
7	2763	458.188046018641	0
7	2768	458.468531888932	0
7	2773	458.595160853191	0
7	2778	459.298403298108	0
7	2783	459.998445058556	0
7	2788	460.436576195622	0
7	2793	463.408743365747	0
7	2798	463.714835720838	0
7	2803	464.229880413111	0
7	2808	465.16391393763	0
7	2813	466.11383822607	0
7	2818	466.455768304179	0
7	2823	466.546187208272	0
7	2828	467.063940028171	0
7	2833	470.182870448497	0
7	2838	470.392014937183	0
7	2843	471.916366516171	0
7	2848	472.484450889309	0
7	2853	472.92023328385	0
7	2858	473.659940099653	0
7	2863	474.715767837168	0
7	2868	475.104531606735	0
7	2874	475.379735122111	0
7	2879	479.712406713369	0
7	2884	480.098226314729	0
7	2889	481.241880732924	0
7	2894	481.454825778924	0
7	2899	481.959357965526	0
7	2904	482.148963824215	0
7	2909	482.605396712091	0
7	2914	483.471422536805	0
7	2919	483.975280646279	0
7	2924	484.120090743019	0
7	2929	484.296964784843	0
7	2934	484.836896494959	0
7	2939	485.420199433006	0
7	2944	486.519987746923	0
7	2949	486.623477999145	0
7	2954	486.772752221897	0
7	2959	486.917997378335	0
7	2964	487.119826102283	0
7	2969	488.521126619468	0
7	2974	489.789593551961	0
7	2979	489.978923010973	0
7	2984	490.501152719074	0
7	2989	491.379040157869	0
7	2994	491.473592537512	0
7	2999	492.134376206774	0
7	3004	493.4310131129	0
7	3009	493.579152788146	0
7	3014	494.312242894042	0
7	3019	494.937692602698	0
7	3025	495.859349227704	0
7	3030	496.313024126616	0
7	3035	496.540658479565	0
7	3040	496.928900602515	0
7	3045	497.827726935254	0
7	3050	500.05298299848	0
7	3055	500.511883997288	0
7	3060	501.354561766037	0
7	3065	501.437529500454	0
7	3070	501.72324475943	0
7	3075	501.95958569118	0
7	3080	502.139028922811	0
7	3087	502.312359587128	0
7	3090	502.352153108708	0
7	3095	502.970705755325	0
7	3100	503.334419090008	0
7	3105	503.897514261946	0
7	3110	506.696803572702	0
7	3115	507.597625040532	0
7	3120	508.29751283982	0
7	3125	509.952698385389	0
7	3130	511.624623088872	0
7	3135	512.230373202489	0
7	3140	512.708070401174	0
7	3145	513.353419159446	0
7	3150	513.840031047358	0
7	3155	514.104664194521	0
7	3160	514.845328026911	0
7	3165	515.454229113042	0
7	3170	516.294667427721	0
7	3176	516.676697796465	0
7	3181	517.874293113932	0
7	3186	518.497774700183	0
7	3191	518.81706361768	0
7	3196	521.657470985453	0
7	3201	522.86355358803	0
7	3206	523.451227407023	0
7	3211	524.130919593287	0
7	3216	524.44689263365	0
7	3221	525.045394722374	0
7	3226	527.463621848176	0
7	3233	531.132107010606	0
7	3236	531.171900532186	0
7	3241	531.399809454242	0
7	3246	531.702155269986	0
7	3251	531.758943244912	0
7	3256	533.27719035657	0
7	3261	534.560107779058	0
7	3266	535.521719889252	0
7	3271	535.780977459916	0
7	3276	536.454270768607	0
7	3281	537.139549322242	0
7	3286	539.498832365102	0
7	3291	539.786430402044	0
7	3296	540.693677725596	0
7	3301	542.313518472361	0
7	3306	542.555367189173	0
7	3311	542.676108278859	0
7	3316	543.098071857375	0
7	3321	545.615698584206	0
7	3327	546.443422770737	0
7	3332	547.281079681272	0
7	3337	548.125393398813	0
7	3342	549.143155626005	0
7	3347	550.381400061936	0
7	3352	550.998196885653	0
7	3359	551.177726864114	0
7	3362	551.217520385694	0
7	3367	554.123399784188	0
7	3372	554.622480465061	0
7	3377	555.27762417685	0
7	3382	555.953171509894	0
7	3387	556.371844579751	0
7	3392	556.477590283779	0
7	3397	558.506790505056	0
7	3402	559.381464429356	0
7	3407	560.533768727491	0
7	3412	565.003423663795	0
7	3417	565.207743155537	0
7	3422	566.206369605557	0
7	3427	568.723569581763	0
7	3432	569.095396041383	0
7	3437	569.605079734281	0
7	3442	570.631192321002	0
7	3447	573.986484266154	0
7	3452	574.770531055686	0
7	3457	576.276607892433	0
7	3462	576.730742703834	0
7	3467	576.879326373222	0
7	3472	577.036830346466	0
7	3478	577.596937793743	0
7	3485	578.263738369102	0
7	3488	578.303531890682	0
7	3493	579.251891322381	0
7	3498	580.246299068696	0
7	3503	580.418138219607	0
7	3508	582.803176120048	0
7	3513	582.846592773425	0
7	3518	582.936930708053	0
7	3523	583.280226302242	0
7	3528	584.665297747273	0
7	3533	585.151808855833	0
7	3538	586.826027340181	0
7	3545	587.406892440154	0
7	3548	587.446685961734	0
7	3553	588.157708547588	0
7	3558	588.852516165792	0
7	3563	589.96349264947	0
7	3568	591.751436294966	0
7	3573	592.86945947216	0
7	3578	593.707138639092	0
7	3583	593.851844752663	0
7	3588	595.036329497009	0
7	3593	596.09410604425	0
7	3598	596.540652563132	0
7	3603	597.520779314497	0
7	3608	597.969437563629	0
7	3613	603.023718903848	0
7	3618	603.679187494022	0
7	3623	605.049609929837	0
7	3631	605.299641833218	0
7	3634	605.339435354798	0
7	3639	605.80710081511	0
7	3644	606.566656126723	0
7	3649	608.669440422097	0
7	3654	609.41387110246	0
7	3659	610.844543040371	0
7	3664	611.172417230701	0
7	3669	612.031042232532	0
7	3674	612.716384969593	0
7	3679	612.817799396898	0
7	3684	614.892381109919	0
7	3689	615.141487077757	0
7	3694	615.978503477266	0
7	3699	616.245776287053	0
7	3706	618.185658390476	0
7	3709	618.225451912056	0
7	3714	618.441840514598	0
7	3719	618.790246056043	0
7	3724	620.514195841708	0
7	3729	622.151147761042	0
7	3734	623.065960930716	0
7	3739	623.382363885555	0
7	3744	623.897413587299	0
7	3749	624.874740540445	0
7	3754	624.996770603297	0
7	3759	626.889401565911	0
7	3764	627.608137283465	0
7	3769	627.792832772022	0
7	3774	628.763148299454	0
7	3780	629.547932168806	0
7	3785	630.064597689787	0
7	3792	630.493005072051	0
7	3795	630.532798593631	0
7	3800	631.875810802305	0
7	3805	632.550796931837	0
7	3810	632.712543982321	0
7	3815	633.160316930586	0
7	3820	634.343394341273	0
7	3825	634.693426605439	0
7	3830	635.860750053705	0
7	3835	636.068044204761	0
7	3842	637.183165267184	0
7	3845	637.222958788764	0
7	3850	638.24212288615	0
7	3855	638.836679622018	0
7	3860	639.783013323364	0
7	3865	639.959669465411	0
7	3870	641.711085592911	0
7	3875	642.014677442314	0
7	3880	642.177449904718	0
7	3885	643.139834159391	0
7	3890	643.329284975459	0
7	3895	643.921382918685	0
7	3900	644.111054018475	0
7	3905	645.594839643186	0
7	3910	646.653841259786	0
7	3915	647.150578887842	0
7	3920	647.316937747439	0
7	3925	648.463172967188	0
7	3931	648.975238935266	0
7	3936	649.451899560896	0
7	3941	651.092497103822	0
7	3946	651.844694822395	0
7	3951	653.048708503887	0
7	3956	653.095124753383	0
7	3961	653.515518487466	0
7	3966	654.31309135879	0
7	3971	654.5219129926	0
7	3976	655.468599372503	0
7	3981	657.150999640779	0
7	3986	657.234462266249	0
7	3991	657.810672878262	0
7	3996	658.21604977429	0
7	4001	658.277469690624	0
7	4006	658.328515610644	0
7	4011	658.457844866446	0
7	4016	658.966271073504	0
7	4021	659.388025769534	0
7	4026	659.882827385566	0
7	4031	660.83294767039	0
7	4036	660.874925574238	0
7	4041	662.662382124841	0
7	4046	664.13312218166	0
7	4051	664.41204867011	0
7	4056	664.639668408742	0
7	4061	666.223601770714	0
7	4066	668.172731181887	0
7	4071	669.084892468351	0
7	4076	669.170363871414	0
7	4082	670.042857890052	0
7	4087	671.796749283387	0
7	4092	672.001671212055	0
7	4097	674.869298669068	0
7	4102	675.864321441852	0
7	4107	676.472933647355	0
7	4112	677.283196574209	0
7	4117	677.567868981405	0
7	4122	677.617859761966	0
7	4127	678.588354189918	0
7	4132	679.53590582169	0
7	4137	682.775844636681	0
7	4142	683.83753019564	0
7	4147	684.082842758524	0
7	4152	684.183045814494	0
7	4157	685.531228625271	0
7	4162	685.768998325346	0
7	4167	687.932484551851	0
7	4172	689.096633345633	0
7	4177	691.964277183765	0
7	4182	693.320700381439	0
7	4187	693.857849611491	0
7	4194	695.740977470167	0
7	4197	695.780770991747	0
7	4202	696.070198589506	0
7	4207	696.378320656093	0
7	4212	697.00576473395	0
7	4217	698.508224493922	0
7	4222	700.004418267983	0
7	4227	700.355811197982	0
7	4233	700.804579074325	0
7	4238	701.228232274674	0
7	4243	701.616411610106	0
7	4248	701.700225789189	0
7	4253	702.259863403167	0
7	4258	704.078092298902	0
7	4263	704.213233721075	0
7	4268	706.299696550318	0
7	4273	708.44136653437	0
7	4278	709.33906273037	0
7	4283	709.626878742966	0
7	4288	710.024575711745	0
7	4293	710.524881130729	0
7	4298	710.609364230529	0
7	4303	710.74886401088	0
7	4308	711.345198364654	0
7	4315	712.622082507207	0
7	4318	712.661876028787	0
7	4323	717.046051452875	0
7	4328	717.594714754153	0
7	4333	719.083732153372	0
7	4338	719.877168503216	0
7	4343	719.985758020699	0
7	4348	720.081975634271	0
7	4353	721.084563779474	0
7	4358	721.929654793346	0
7	4363	722.214373443425	0
7	4368	724.32491454122	0
7	4373	724.79190971522	0
7	4378	725.753078254889	0
7	4384	726.00311015827	0
7	4389	731.920252640995	0
7	4394	732.437536869907	0
7	4399	732.653645814994	0
7	4404	733.504778432608	0
7	4409	735.202203901296	0
7	4414	735.650163964769	0
7	4419	736.053454427282	0
7	4424	736.369250094116	0
7	4429	737.659778205734	0
7	4434	738.600513038806	0
7	4439	738.725618830534	0
7	4444	739.690552286803	0
7	4449	740.752415422089	0
7	4454	741.137310235754	0
7	4459	741.429329916677	0
7	4464	741.607193340189	0
7	4469	743.448550408389	0
7	4474	743.578393516103	0
7	4479	745.237008082655	0
7	4484	746.03585403179	0
7	4489	746.758352925735	0
7	4494	747.133898780614	0
7	4499	747.207311809659	0
7	4504	748.262095599843	0
7	4509	749.72958754056	0
7	4514	752.711868261513	0
7	4519	752.87282938686	0
7	4524	753.571242276162	0
7	4529	754.333107953826	0
7	4535	755.059073291308	0
7	4540	755.49166859399	0
7	4545	757.607425689559	0
7	4550	757.659990285231	0
7	4555	758.007510100627	0
7	4560	758.476303568483	0
7	4565	758.894585375694	0
7	4570	759.1102205203	0
7	4577	759.69722693294	0
7	4580	759.73702045452	0
7	4587	761.047737165467	0
7	4590	761.087530687047	0
7	4595	761.280842822799	0
7	4600	761.429248847502	0
7	4605	762.625362759902	0
7	4610	762.688729696625	0
7	4615	764.736339209168	0
7	4620	765.096079521012	0
7	4625	765.950113770054	0
7	4630	766.34134103518	0
7	4635	766.564435445664	0
7	4640	766.718275437441	0
7	4647	768.252659571598	0
7	4650	768.292453093178	0
7	4655	768.443290971899	0
7	4660	768.809729258983	0
7	4665	768.970946596186	0
7	4670	769.285949629782	0
7	4675	769.684430838689	0
7	4680	770.456349392586	0
7	4686	771.514060538879	0
7	4691	772.097796528685	0
7	4696	772.323267300731	0
7	4701	772.3737078421	0
7	4706	773.137145487686	0
7	4711	773.832543428631	0
7	4716	776.469343715768	0
7	4721	777.350206668965	0
7	4726	777.675854890232	0
7	4731	778.794892926244	0
7	4738	779.764114778304	0
7	4741	779.803908299884	0
7	4746	779.974633760612	0
7	4751	780.407080499357	0
7	4756	782.896144673962	0
7	4761	783.321412235148	0
7	4766	784.007663591264	0
7	4773	784.618115953153	0
7	4776	784.657909474733	0
7	4781	786.931135019084	0
7	4786	786.988920521516	0
7	4791	787.413360909641	0
7	4796	788.94867443677	0
7	4801	789.267128850915	0
7	4806	790.051232412319	0
7	4811	790.820463056556	0
7	4816	791.468816172611	0
7	4821	791.672219879505	0
7	4826	792.043724625406	0
7	4831	792.394514388597	0
7	4837	792.644901963192	0
7	4842	793.334303341404	0
7	4847	794.703523810823	0
7	4852	795.434054865131	0
7	4857	796.302624228	0
7	4862	796.711491154167	0
7	4867	796.844785488142	0
7	4872	798.691600776447	0
7	4877	799.751554803209	0
7	4882	800.271655138721	0
7	4887	800.78394689851	0
7	4892	801.045103031545	0
7	4897	802.145955507233	0
7	4902	802.549748401359	0
7	4907	803.22062147615	0
7	4912	803.298435730628	0
7	4917	805.080293667197	0
7	4922	805.58306514942	0
7	4927	806.310137946898	0
7	4932	807.922453412539	0
7	4937	808.203285337706	0
7	4942	808.279001499898	0
7	4947	809.107389249754	0
7	4952	810.684910600109	0
7	4957	811.932168138434	0
7	4962	815.965654520283	0
7	4967	816.938063888794	0
7	4972	818.373565788738	0
7	4977	818.639523862214	0
7	4982	818.807478252402	0
7	4988	819.057510155783	0
7	4993	819.440865992343	0
7	4998	819.684526093525	0
7	5003	819.734109202591	0
7	5008	820.631461709318	0
7	5013	820.938086385294	0
7	5018	824.934159205367	0
7	5023	825.057005782265	0
7	5028	825.651699703873	0
7	5033	826.220464288131	0
7	5038	826.273466121144	0
7	5043	827.299687934011	0
7	5048	827.930076123893	0
7	5053	829.3132794349	0
7	5058	829.688252982623	0
7	5063	829.898182792917	0
7	5068	831.378884487696	0
7	5073	831.525962680824	0
7	5078	831.611198018015	0
7	5083	834.843720721263	0
7	5088	835.312667640427	0
7	5093	835.448922303925	0
7	5098	836.234660549732	0
7	5103	837.223069658437	0
7	5108	837.367128826766	0
7	5113	837.970196201237	0
7	5118	839.394372680821	0
7	5123	839.700442242099	0
7	5128	839.75173470988	0
7	5133	841.15483717256	0
7	5139	841.625926849267	0
7	5144	841.867017022708	0
7	5149	842.726603243742	0
7	5154	844.190464692096	0
7	5159	844.418537141219	0
7	5164	844.56905517939	0
7	5169	845.206924622284	0
7	5174	845.660515478165	0
7	5179	846.205958164516	0
7	5184	847.149490582426	0
7	5189	847.542250180682	0
7	5194	847.929315849324	0
7	5199	848.437052055314	0
7	5204	849.539789210674	0
7	5209	851.608229019863	0
7	5214	854.061025212782	0
7	5219	855.497792152021	0
7	5224	855.972262667169	0
7	5229	857.978046737527	0
7	5234	858.290201821248	0
7	5239	859.168318867033	0
7	5244	859.997811348532	0
7	5251	860.17661094918	0
7	5254	860.21640447076	0
7	5259	860.597100644775	0
7	5264	860.891932162815	0
7	5269	861.778363256166	0
7	5274	861.92678568234	0
7	5279	863.367288139731	0
7	5284	863.498434816996	0
7	5290	863.748466720377	0
7	5295	863.946044905351	0
7	5300	864.955120663178	0
7	5305	865.611805869069	0
7	5310	865.754893757609	0
7	5315	866.279386961569	0
7	5320	869.230095304085	0
7	5325	869.789866352646	0
7	5330	872.448948120651	0
7	5335	874.342329681899	0
7	5340	874.633731753175	0
7	5345	875.430112115355	0
7	5352	875.766662657757	0
7	5355	875.806456179337	0
7	5360	876.227003345704	0
7	5365	876.353244541852	0
7	5370	877.776524112971	0
7	5375	879.038479628449	0
7	5380	879.314449154204	0
7	5385	880.231613577348	0
7	5390	882.228261258073	0
7	5395	883.709799224003	0
7	5400	885.085546452742	0
7	5405	886.811578657625	0
7	5410	889.396657580597	0
7	5415	892.063225850888	0
7	5420	892.152107896213	0
7	5425	892.536957091397	0
7	5430	895.536758502558	0
7	5435	895.687293283668	0
7	5441	895.937325187049	0
7	5446	896.974805600703	0
7	5451	897.134064106059	0
7	5456	898.33553638364	0
7	5461	899.111362613959	0
7	5466	899.290931442	0
7	5471	899.442808153938	0
7	5476	899.488902419709	0
7	5481	900.834891205014	0
7	5486	904.294826822973	0
7	5491	904.44712880219	0
7	5496	904.955599894617	0
7	5501	905.965193820845	0
7	5506	907.457399125395	0
7	5511	908.691465929873	0
7	5516	908.82696500777	0
7	5521	909.877004257998	0
7	5526	914.599726673893	0
7	5531	915.574840658511	0
7	5536	915.90485227465	0
7	5541	916.395521835367	0
7	5546	916.566337765655	0
7	5551	918.646646036164	0
7	5556	921.792923148301	0
7	5561	922.245998234881	0
7	5566	922.869109410857	0
7	5571	926.336582238589	0
7	5576	927.884733932107	0
7	5581	929.266023801998	0
7	5586	929.899340189492	0
7	5592	930.314177938477	0
7	5597	930.674086378381	0
7	5602	930.754004132346	0
7	5607	931.867085203606	0
7	5612	932.108078380209	0
7	5617	933.605658028989	0
7	5622	938.691412639906	0
7	5627	939.511608238456	0
7	5632	940.222539052549	0
7	5637	940.890584525792	0
7	5642	941.722547806298	0
7	5647	942.64276488883	0
7	5652	942.713386710448	0
7	5657	944.245808959255	0
7	5662	944.443118576863	0
7	5667	946.482423141368	0
7	5672	946.721521097589	0
7	5677	950.503560571256	0
7	5682	951.079798426817	0
7	5687	951.735677363488	0
7	5692	952.878116811776	0
7	5697	953.308818825537	0
7	5702	953.428578781299	0
7	5707	957.516498540597	0
7	5712	957.587855958828	0
7	5717	958.194449595396	0
7	5722	962.233116932381	0
7	5727	962.721715980553	0
7	5732	963.01404215433	0
7	5737	963.784966257442	0
7	5743	964.034998160823	0
7	5748	964.844622850428	0
7	5753	965.037642292175	0
7	5758	965.860846706214	0
7	5763	965.913866883786	0
7	5768	966.429602679396	0
7	5773	967.413450817623	0
7	5780	968.776951391336	0
7	5783	968.816744912916	0
7	5788	971.007240770374	0
7	5793	971.284473598141	0
7	5798	971.862914876821	0
7	5803	971.914302772235	0
7	5808	972.259055615521	0
7	5813	972.4168759002	0
7	5818	974.83792535985	0
7	5823	974.897491934974	0
7	5828	976.071888764329	0
7	5833	977.704056797741	0
7	5838	979.97108686651	0
7	5843	983.021320254535	0
7	5848	984.12392685953	0
7	5853	984.52799749585	0
7	5858	985.051927742575	0
7	5863	985.879029714255	0
7	5868	986.352234206626	0
7	5875	986.653153533263	0
7	5878	986.692947054843	0
7	5883	989.091860968337	0
7	5888	989.800950396001	0
7	5894	990.209959783651	0
7	5899	990.557817083339	0
7	5904	990.933896359956	0
7	5909	991.09645977463	0
7	5914	992.074610676923	0
7	5919	992.684979742617	0
7	5924	993.525079486436	0
7	5929	994.10697618526	0
7	5934	994.195750627638	0
7	5939	996.487671803108	0
7	5944	996.819119528984	0
7	5949	996.929589351494	0
7	5954	997.139739964637	0
7	5959	997.748007565457	0
7	5964	998.669655636899	0
7	5969	998.915499855079	0
7	5974	999.194301489789	0
8	121	23.173305921406	0.038151676422
8	167	33.614257168043	0.005328198964
8	182	34.726026291308	0.02387103479
8	262	52.359075825164	0.037372236771
8	308	58.216590441797	0.160668263147
8	310	58.256383963377	0.159964138776
8	313	58.296177484957	0.18400010046
8	428	81.281445962117	0.038461240974
8	660	121.112027294463	0.000398803749
8	740	135.307780195201	0.039308562291
8	759	138.52269295221	0.123954482475
8	763	138.56248647379	0.129781939246
8	766	138.60227999537	0.044702176138
8	806	142.809755957605	0.006144784431
8	972	168.888419981161	0.037054811926
8	987	170.70429165891	0.010225052572
8	1002	172.606426521835	0.014563426566
8	1007	172.646220043415	0.019174754449
8	1063	180.405843335744	0.03641544995
8	1078	181.486062196663	0.007201001851
8	1123	184.240071957709	0.013019459948
8	1229	209.222716326229	0.03611148308
8	1304	219.311742293256	0.022503685644
8	1512	249.729763544635	0.170356818957
8	1656	272.248211384623	0.035851039171
8	1838	303.924748906692	0.036656294625
8	1965	329.064465857804	0.200915810042
8	2094	347.631994707154	0.014506280748
8	2175	361.20209202519	0.007867888983
8	2306	385.944245116253	0.003971371841
8	2487	419.529379147045	0.017407771404
8	2547	427.169449997393	0.008367139529
8	2703	450.249554722465	0.031877684296
8	2708	450.289348244045	6.2464187e-05
8	2720	451.401884558996	0.179478720284
8	3086	502.312359587128	0.011007093109
8	3232	531.132107010606	0.028671039066
8	3358	551.177726864114	0.034908812416
8	3484	578.263738369102	0.032758558009
8	3544	587.406892440154	0.03464521519
8	3628	605.259848311638	0.178392039699
8	3630	605.299641833218	0.112956090299
8	3705	618.185658390476	0.025081237814
8	3791	630.493005072051	0.018893864158
8	3841	637.183165267184	0.014310929912
8	4193	695.740977470167	0.023439589598
8	4314	712.622082507207	0.031344715119
8	4381	725.96331663669	0.206953743698
8	4576	759.69722693294	0.036920068462
8	4586	761.047737165467	0.037772831658
8	4646	768.252659571598	0.020179377797
8	4737	779.764114778304	0.018566236532
8	4772	784.618115953153	0.019224107696
8	4985	819.017716634203	0.033980497992
8	5250	860.17661094918	0.031214858909
8	5287	863.708673198797	0.001407665776
8	5351	875.766662657757	0.002344711115
8	5438	895.897531665469	0.209272995204
8	5740	963.995204639243	0.052503997144
8	5779	968.776951391336	0.007635405245
8	5874	986.653153533263	0.022151859682

