version 2
run General-256-20240201-11:04:25-40057
attr configname General
attr datetime 20240201-11:04:25
attr experiment General
attr inifile main.ini
attr iterationvars "$0=1.2, $1=1.7, $2=30"
attr iterationvarsf 1.2,1.7,30-
attr measurement "$0=1.2, $1=1.7, $2=30"
attr network Rete
attr processid 40057
attr repetition 16
attr replication #16
attr resultdir results
attr runnumber 256
attr seedset 256
param Rete.lambda 1.2
param Rete.a 0.3s
param Rete.b 1.7s
param Rete.c 0.1s
param Rete.d 0.3s
param Rete.mu 3.0
param Rete.source2.interArrivalTime exponential(1s/lambda)
param Rete.source2.jobServiceTime exponential(1s/mu)
param Rete.source2.deadline uniform(a,b)
param Rete.server2.j 30
param Rete.server2.V uniform(c,d)

vector 0 Rete.passiveQueue queueLength:vector ETV
attr interpolationmode sample-hold
attr title "queue length, vector"
vector 1 Rete.passiveQueue queueingTime:vector ETV
attr interpolationmode none
attr title "queueing time at dequeue, vector"
attr unit s
vector 2 Rete.sink lifeTime:vector ETV
attr interpolationmode none
attr title "lifetime of arrived jobs, vector"
attr unit s
vector 3 Rete.sink totalQueueingTime:vector ETV
attr interpolationmode none
attr title "the total time spent in queues by arrived jobs, vector"
attr unit s
vector 4 Rete.sink queuesVisited:vector ETV
attr interpolationmode none
attr title "the total number of queues visited by arrived jobs, vector"
vector 5 Rete.sink totalServiceTime:vector ETV
attr interpolationmode none
attr title "the total time spent  by arrived jobs, vector"
attr unit s
vector 6 Rete.sink totalDelayTime:vector ETV
attr interpolationmode none
attr title "the total time spent in delay nodes by arrived jobs, vector"
attr unit s
vector 7 Rete.sink delaysVisited:vector ETV
attr interpolationmode none
attr title "the total number of delays visited by arrived jobs, vector"
vector 8 Rete.sink generation:vector ETV
attr interpolationmode none
attr title "the generation of the arrived jobs, vector"
0	0	0	0
0	5	0.228388829779	1
0	6	0.333114470762	0
0	15	0.875745405412	1
0	16	1.096468766707	0
0	25	1.862365573797	1
0	26	2.134479256643	0
0	55	7.716887055353	1
0	56	7.965707831305	0
0	70	9.848922366717	1
0	71	10.085207337281	0
0	75	10.246808657459	1
0	76	10.37926763832	0
0	120	16.325121425385	1
0	121	16.487190190032	0
0	161	22.950797474762	1
0	162	23.050704250562	0
0	166	23.170824111673	1
0	167	23.344764551601	0
0	191	26.128639169177	1
0	192	26.369938828325	0
0	221	31.012695929209	1
0	222	31.249877180166	0
0	226	31.491231102156	1
0	227	31.543937481205	0
0	241	34.515214033751	1
0	242	34.787925703812	0
0	261	37.874194681751	1
0	262	38.0718386181	0
0	271	38.62449247232	1
0	272	38.71054517266	0
0	276	38.712749847999	1
0	277	39.004605473699	0
0	286	39.511334736401	1
0	287	39.661639129186	0
0	291	39.826032358103	1
0	292	39.955699430225	0
0	296	40.050884207069	1
0	297	40.249759731264	0
0	312	43.781144792428	1
0	313	44.038722208828	0
0	332	48.592314333947	1
0	333	48.729894851203	0
0	352	51.55004332603	1
0	353	51.626787418879	0
0	372	54.639668676432	1
0	374	54.652194580041	2
0	375	54.681588022546	1
0	379	54.932684249859	2
0	380	54.975648323585	1
0	383	55.269708624624	0
0	412	63.238795329431	1
0	413	63.312858065212	0
0	417	63.320438813819	1
0	418	63.606918366251	0
0	432	64.656153596288	1
0	433	64.84888769275	0
0	442	66.31149912964	1
0	443	66.56428745475	0
0	458	68.256940351693	1
0	459	68.44515578964	0
0	468	71.22719627764	1
0	469	71.229826300068	0
0	478	72.929157144424	1
0	479	73.044397455091	0
0	488	73.62923219572	1
0	489	73.791553806925	0
0	498	75.075769916535	1
0	499	75.177225264389	0
0	513	76.237536165117	1
0	514	76.503285781606	0
0	523	78.252400482963	1
0	524	78.450063558454	0
0	538	79.422696551499	1
0	539	79.69040489943	0
0	553	80.702933678733	1
0	554	80.793601380796	0
0	568	82.457549963935	1
0	569	82.496548388702	0
0	609	86.896472047634	1
0	610	86.898990421821	0
0	654	97.324940441938	1
0	655	97.338305539539	0
0	669	101.007606644198	1
0	670	101.280232017121	0
0	694	104.198794380292	1
0	695	104.23309277699	0
0	704	105.807958114691	1
0	705	105.823857882497	0
0	729	109.743058163468	1
0	731	109.801057890825	2
0	732	109.926638787442	1
0	735	110.220699088481	0
0	739	110.44071210494	1
0	740	110.51475938952	0
0	754	114.258662835821	1
0	757	114.664238965658	0
0	760	114.809217160127	1
0	761	114.958299266697	0
0	790	123.143025182206	1
0	791	123.42534178792	0
0	800	125.058649286306	1
0	801	125.13488016273	0
0	805	125.294779441049	1
0	806	125.428940463769	0
0	815	126.599375767465	1
0	816	126.64200195254	0
0	850	137.240672545495	1
0	851	137.339368436662	0
0	855	137.521639721159	1
0	856	137.633428737701	0
0	880	141.172104181036	1
0	881	141.175245480341	0
0	921	151.350076455014	1
0	922	151.357279948448	0
0	926	151.471842450493	1
0	928	151.640408845175	2
0	929	151.651340249487	1
0	933	151.748017262749	2
0	934	151.945400550526	1
0	937	152.239460851565	0
0	951	153.952689065199	1
0	952	153.977604434773	0
0	981	159.29821495449	1
0	983	159.457536541084	2
0	984	159.54209082269	1
0	987	159.836151123729	0
0	1001	161.451845031427	1
0	1003	161.571251755417	2
0	1004	161.672727747364	1
0	1007	161.966788048403	0
0	1016	163.249927430077	1
0	1017	163.39137256198	0
0	1036	165.084656670466	1
0	1037	165.279114812689	0
0	1041	165.545392344021	1
0	1042	165.573175113728	0
0	1067	170.724680882393	1
0	1069	170.97681490495	2
0	1070	171.018220073415	1
0	1073	171.312280374454	0
0	1077	171.435981641982	1
0	1078	171.606340675493	0
0	1097	174.224679491225	1
0	1098	174.453280869554	0
0	1102	174.620971313198	1
0	1103	174.747341170593	0
0	1107	174.933068735071	1
0	1109	174.989506788112	2
0	1110	175.041401471632	1
0	1113	175.335461772671	0
0	1117	175.408064022524	1
0	1118	175.62952207371	0
0	1122	175.774470683054	1
0	1123	175.923582374749	0
0	1127	175.940802302447	1
0	1129	176.1069176531	2
0	1130	176.217642675788	1
0	1133	176.511702976827	0
0	1142	177.012020180752	1
0	1143	177.111273701237	0
0	1177	184.162321673467	1
0	1178	184.424991212149	0
0	1202	188.702400366949	1
0	1203	188.795414412084	0
0	1213	191.875936432738	1
0	1214	191.903218366804	0
0	1218	192.110804735339	1
0	1219	192.197278667843	0
0	1238	193.710383590665	1
0	1239	193.943690164808	0
0	1253	196.56466742996	1
0	1255	196.66487266994	2
0	1256	196.733020026575	1
0	1259	197.027080327614	0
0	1263	197.099140358721	1
0	1264	197.321140628653	0
0	1273	199.283168423668	1
0	1274	199.287570717036	0
0	1298	202.722814420707	1
0	1299	203.003969572057	0
0	1303	203.177500496577	1
0	1304	203.298029873096	0
0	1318	207.696000907574	1
0	1319	207.976183865492	0
0	1323	208.006794982277	1
0	1324	208.270244166531	0
0	1353	216.520555208117	1
0	1354	216.670730668457	0
0	1360	217.099621804351	1
0	1361	217.170605667881	0
0	1369	218.634411848211	1
0	1370	218.81455398797	0
0	1379	219.676243433679	1
0	1380	219.780285000672	0
0	1384	219.817955649718	1
0	1385	220.074345301711	0
0	1399	222.410373658779	1
0	1400	222.640375886676	0
0	1404	222.774343533228	1
0	1405	222.934436187715	0
0	1409	223.097591519702	1
0	1410	223.228496488754	0
0	1419	224.054231869765	1
0	1420	224.34244422179	0
0	1454	236.211034175001	1
0	1456	236.249795828342	2
0	1457	236.46126459225	1
0	1461	236.667007174354	2
0	1462	236.755324893289	1
0	1465	237.049385194328	0
0	1484	239.528470577851	1
0	1485	239.779050735967	0
0	1515	245.203713379298	1
0	1516	245.33935871395	0
0	1520	245.553587994872	1
0	1521	245.633419014989	0
0	1550	252.780580076962	1
0	1551	253.05166112905	0
0	1560	254.163156865114	1
0	1562	254.272820453181	2
0	1563	254.306319891564	1
0	1567	254.467273444182	2
0	1568	254.600380192603	1
0	1572	254.767190615652	2
0	1573	254.894440493642	1
0	1576	255.188500794681	0
0	1600	258.493552106832	1
0	1602	258.627826503985	2
0	1603	258.740922176673	1
0	1606	259.034982477712	0
0	1630	262.588071668607	1
0	1631	262.800086933165	0
0	1640	263.533394007885	1
0	1642	263.702388154914	2
0	1643	263.805945721173	1
0	1646	264.100006022212	0
0	1671	269.073987049296	1
0	1673	269.340696051148	2
0	1674	269.357622493866	1
0	1677	269.651682794905	0
0	1681	269.823246261539	1
0	1682	269.945743095944	0
0	1686	270.074089926875	1
0	1687	270.239803396983	0
0	1691	270.333040480944	1
0	1693	270.45210710621	2
0	1694	270.533863698022	1
0	1698	270.766766850046	2
0	1699	270.827923999061	1
0	1702	271.1219843001	0
0	1706	271.122209098024	1
0	1708	271.402633359765	2
0	1709	271.416044601139	1
0	1712	271.710104902178	0
0	1731	275.686080316063	1
0	1732	275.889918697632	0
0	1736	276.180158852485	1
0	1737	276.183978998671	0
0	1761	280.064738327169	1
0	1763	280.174184400481	2
0	1764	280.188316881496	1
0	1767	280.482377182535	0
0	1771	280.661865968888	1
0	1772	280.776437483574	0
0	1776	280.96092371112	1
0	1777	281.070497784613	0
0	1786	281.466462863367	1
0	1787	281.759987885039	0
0	1796	282.480844504361	1
0	1797	282.592692028952	0
0	1842	288.968331843302	1
0	1843	289.209238202624	0
0	1862	292.038567074954	1
0	1863	292.326891092225	0
0	1872	294.592205904087	1
0	1873	294.883493686669	0
0	1907	300.788902176568	1
0	1908	300.822970088491	0
0	1937	305.087208892602	1
0	1938	305.223266946928	0
0	1947	310.659827688314	1
0	1948	310.754465222477	0
0	1978	317.052461807824	1
0	1979	317.07274094932	0
0	1993	318.785644849385	1
0	1995	318.901413668182	2
0	1996	319.027673190413	1
0	1999	319.321733491452	0
0	2003	319.471074021107	1
0	2005	319.592289736682	2
0	2006	319.615793792491	1
0	2009	319.90985409353	0
0	2013	319.926184870371	1
0	2014	320.203914394569	0
0	2018	320.447164336393	1
0	2019	320.497974695608	0
0	2023	320.594187750036	1
0	2024	320.792034996647	0
0	2028	320.807093655292	1
0	2029	321.086095297686	0
0	2033	321.316261985582	1
0	2034	321.380155598725	0
0	2043	322.397005667326	1
0	2044	322.650051275886	0
0	2083	330.056605633316	1
0	2084	330.30409352496	0
0	2088	330.336756079008	1
0	2089	330.598153825999	0
0	2115	338.064510993117	1
0	2117	338.105010470017	2
0	2118	338.214090972821	1
0	2121	338.224796470997	2
0	2122	338.50815127386	1
0	2126	338.611244774097	2
0	2128	338.736817684147	3
0	2129	338.802211574899	2
0	2132	339.096271875938	1
0	2135	339.390332176977	0
0	2169	348.780610231072	1
0	2170	348.948304583227	0
0	2189	351.780475245189	1
0	2190	352.058803289364	0
0	2194	352.160655763659	1
0	2195	352.352863590403	0
0	2209	355.182669783431	1
0	2210	355.390007399024	0
0	2224	357.072985544931	1
0	2225	357.231340816902	0
0	2270	363.097482842965	1
0	2271	363.221067115018	0
0	2280	363.782472188791	1
0	2281	363.968713204596	0
0	2295	366.23237038471	1
0	2296	366.513924846225	0
0	2300	366.766020959607	1
0	2301	366.807985147264	0
0	2330	372.593793188371	1
0	2331	372.651297888147	0
0	2335	372.724281190946	1
0	2336	372.945358189186	0
0	2370	381.344096115566	1
0	2371	381.511665504577	0
0	2380	383.650416993072	1
0	2382	383.8504939101	2
0	2383	383.851603688132	1
0	2386	384.145663989171	0
0	2395	384.816245454392	1
0	2396	384.94882671928	0
0	2451	393.677039800847	1
0	2452	393.783800316163	0
0	2456	394.049049962332	1
0	2457	394.077860617202	0
0	2471	396.169976322155	1
0	2472	396.389961684551	0
0	2496	400.282612483453	1
0	2497	400.311832795658	0
0	2501	400.363843232419	1
0	2503	400.518627444003	2
0	2504	400.605893096697	1
0	2507	400.899953397736	0
0	2511	400.951849512055	1
0	2512	401.194013698775	0
0	2516	401.311192349211	1
0	2517	401.488073999814	0
0	2526	402.335208656859	1
0	2528	402.384997490316	2
0	2529	402.424376328725	1
0	2532	402.718436629764	0
0	2561	407.774738560602	1
0	2562	407.914471383122	0
0	2566	408.006006759111	1
0	2568	408.143021089868	2
0	2571	408.414346382546	1
0	2573	408.708406683585	0
0	2607	415.236774732534	1
0	2608	415.41888525265	0
0	2617	416.892500521677	1
0	2618	417.137404663944	0
0	2622	417.32379215077	1
0	2623	417.431464964983	0
0	2707	431.205094220717	1
0	2709	431.287044876498	2
0	2710	431.36704792609	1
0	2713	431.661108227129	0
0	2717	431.691936421548	1
0	2721	432.124853565997	2
0	2722	432.160983226553	1
0	2725	432.42740016179	2
0	2726	432.455043527592	1
0	2730	432.743544088535	2
0	2731	432.749103828631	1
0	2734	433.04316412967	0
0	2738	433.296295132121	1
0	2739	433.337224430709	0
0	2743	433.600854605883	1
0	2744	433.631284731748	0
0	2763	435.615275970178	1
0	2764	435.750667107711	0
0	2768	436.005044219988	1
0	2769	436.04472740875	0
0	2773	436.208565062252	1
0	2774	436.338787709789	0
0	2793	439.253118986996	1
0	2795	439.311039823794	2
0	2796	439.389925906286	1
0	2799	439.683986207325	0
0	2843	450.095159002248	1
0	2844	450.344930730742	0
0	2848	450.364499678172	1
0	2850	450.389469036003	2
0	2852	450.428299131219	3
0	2854	450.607021171361	4
0	2855	450.638991031781	3
0	2859	450.797944885702	4
0	2860	450.93305133282	3
0	2863	451.227111633859	2
0	2866	451.521171934898	1
0	2871	452.021046934322	0
0	2882	452.78164196015	1
0	2883	452.971165525051	0
0	2892	455.211601625415	1
0	2894	455.347769445277	2
0	2895	455.370211382061	1
0	2898	455.6642716831	0
0	2927	462.288259295942	1
0	2928	462.348081089212	0
0	2967	469.555019276035	1
0	2968	469.615073260847	0
0	2977	470.527470651863	1
0	2979	470.596069956083	2
0	2980	470.763781745493	1
0	2984	470.867129632196	2
0	2985	471.057842046532	1
0	2988	471.351902347571	0
0	3028	479.242378789814	1
0	3029	479.515914330218	0
0	3038	480.070088200464	1
0	3039	480.283262305305	0
0	3073	488.667567623211	1
0	3074	488.853484495751	0
0	3078	488.908730434232	1
0	3080	488.954166643493	2
0	3081	489.14754479679	1
0	3084	489.441605097829	0
0	3113	494.433559308533	1
0	3114	494.482238886493	0
0	3118	494.57790850164	1
0	3119	494.776299187532	0
0	3123	494.935877342855	1
0	3124	495.070359488571	0
0	3138	499.995706533541	1
0	3139	500.062181985389	0
0	3153	503.129634090689	1
0	3154	503.247056648178	0
0	3158	503.443128074577	1
0	3159	503.541116949217	0
0	3219	515.917820111495	1
0	3221	516.027151433544	2
0	3222	516.211018653412	1
0	3225	516.505078954451	0
0	3239	518.452047469892	1
0	3240	518.457723627037	0
0	3264	524.497434540295	1
0	3265	524.713791668743	0
0	3299	529.897332904911	1
0	3301	530.08482805594	2
0	3302	530.142045412718	1
0	3305	530.436105713757	0
0	3319	535.696771437788	1
0	3321	535.759806432077	2
0	3322	535.767584929501	1
0	3326	535.800085208706	2
0	3329	536.267459928925	1
0	3331	536.561520229964	0
0	3340	537.582490043757	1
0	3341	537.76809832232	0
0	3345	537.972823601459	1
0	3346	538.062158623359	0
0	3400	548.799472073019	1
0	3401	548.805537255151	0
0	3405	548.964483056573	1
0	3406	549.09959755619	0
0	3420	550.518512239734	1
0	3421	550.733640095397	0
0	3425	550.74690721671	1
0	3426	551.027700396436	0
0	3440	554.306371656121	1
0	3442	554.404892444374	2
0	3443	554.551367287757	1
0	3447	554.610790329717	2
0	3448	554.845427588796	1
0	3452	554.879157079177	2
0	3453	555.139487889835	1
0	3456	555.433548190874	0
0	3486	563.482074563141	1
0	3487	563.573144933301	0
0	3496	564.201378916709	1
0	3497	564.206315553836	0
0	3516	566.173636574707	1
0	3517	566.18414323728	0
0	3536	567.480054197525	1
0	3538	567.754046579585	2
0	3539	567.754963473828	1
0	3543	567.757395519291	2
0	3544	568.049023774867	1
0	3547	568.343084075906	0
0	3561	570.370340349269	1
0	3562	570.507914429108	0
0	3571	571.262763178639	1
0	3572	571.522786864176	0
0	3581	574.17830855093	1
0	3582	574.34565059244	0
0	3626	586.112322752284	1
0	3629	586.341957969645	0
0	3667	593.36155198613	1
0	3668	593.369862439398	0
0	3677	594.61544031477	1
0	3678	594.8816603478	0
0	3687	595.736786318211	1
0	3689	595.914687124128	2
0	3690	596.0025288248	1
0	3694	596.109007916129	2
0	3695	596.296589125839	1
0	3698	596.590649426878	0
0	3707	598.959169028693	1
0	3708	598.977215366379	0
0	3717	600.574132632468	1
0	3718	600.853464912496	0
0	3727	602.300825346014	1
0	3728	602.33211094539	0
0	3752	605.971255388258	1
0	3753	606.045198182876	0
0	3772	608.740174485831	1
0	3773	608.758302425683	0
0	3777	608.990722675523	1
0	3781	609.074189447892	2
0	3782	609.258177425107	1
0	3784	609.552237726146	0
0	3793	610.796974833704	1
0	3794	610.873127135777	0
0	3823	616.998220548133	1
0	3824	617.245864230836	0
0	3838	621.92246825748	1
0	3839	622.13787522083	0
0	3843	622.192697193601	1
0	3845	622.25211358578	2
0	3846	622.431935521869	1
0	3849	622.725995822908	0
0	3853	622.761734467433	1
0	3854	623.020056123947	0
0	3863	623.868759698248	1
0	3864	624.158935762845	0
0	3868	624.445414528322	1
0	3869	624.452996063884	0
0	3878	625.030159960791	1
0	3879	625.116153940274	0
0	3883	625.337759917836	1
0	3884	625.410214241313	0
0	3913	635.357165582659	1
0	3914	635.511557427754	0
0	3918	635.567681352644	1
0	3919	635.805617728793	0
0	3928	636.483172871953	1
0	3931	636.73363859161	0
0	3949	639.223261800546	1
0	3950	639.235377469038	0
0	3959	640.855563887486	1
0	3960	640.861692906755	0
0	3984	644.552722948515	1
0	3985	644.623723049657	0
0	3994	647.861142167121	1
0	3995	648.133648615909	0
0	4049	659.585328815064	1
0	4050	659.633161840273	0
0	4059	660.304174466663	1
0	4060	660.457248371223	0
0	4074	661.739653025121	1
0	4075	661.81358794058	0
0	4079	662.051944605084	1
0	4082	662.313462940004	0
0	4105	666.191432756786	1
0	4106	666.202784749217	0
0	4115	667.501481317823	1
0	4116	667.506952705744	0
0	4125	669.257170693159	1
0	4126	669.390574192068	0
0	4155	674.434269957555	1
0	4156	674.625571853418	0
0	4180	681.684469053629	1
0	4182	681.689455365672	2
0	4184	681.830982430448	3
0	4185	681.93096689898	2
0	4189	682.044287024546	3
0	4191	682.154418525079	4
0	4192	682.225027200019	3
0	4196	682.496946546521	4
0	4197	682.519087501058	3
0	4200	682.813147802097	2
0	4203	683.107208103136	1
0	4206	683.401268404175	0
0	4230	688.869137814136	1
0	4233	689.283490530814	0
0	4241	689.747002231869	1
0	4242	689.886280209738	0
0	4246	689.890954284889	1
0	4248	689.916341176583	2
0	4250	690.054847299866	3
0	4251	690.180340510777	2
0	4255	690.209328473489	3
0	4257	690.451425739775	4
0	4258	690.474400811816	3
0	4261	690.768461112855	2
0	4264	691.062521413894	1
0	4267	691.356581714933	0
0	4271	691.569367181843	1
0	4272	691.650642015972	0
0	4276	691.696009778166	1
0	4278	691.821494677427	2
0	4279	691.944702317011	1
0	4282	692.23876261805	0
0	4306	697.415637441468	1
0	4307	697.657107417878	0
0	4311	697.735346205708	1
0	4312	697.951167718917	0
0	4341	704.544582828283	1
0	4342	704.562271205301	0
0	4346	704.650390724921	1
0	4348	704.852191607573	2
0	4349	704.85633150634	1
0	4352	705.150391807379	0
0	4397	715.878276714464	1
0	4398	716.109189965401	0
0	4412	718.079773155935	1
0	4413	718.221307804984	0
0	4442	723.325526322024	1
0	4443	723.419563850248	0
0	4462	726.13766945649	1
0	4464	726.172948507059	2
0	4465	726.294295054227	1
0	4468	726.588355355266	0
0	4472	726.683924493869	1
0	4473	726.882415656305	0
0	4482	727.343554132053	1
0	4483	727.521019450106	0
0	4487	727.661025467773	1
0	4488	727.815079751145	0
0	4507	730.059735203369	1
0	4508	730.272204731163	0
0	4527	734.573959683549	1
0	4528	734.679406019317	0
0	4548	736.956560959633	1
0	4549	737.204860971212	0
0	4568	741.502663317107	1
0	4569	741.623191797548	0
0	4578	743.261571535566	1
0	4579	743.327660571695	0
0	4583	743.430391715263	1
0	4584	743.621720872734	0
0	4588	743.861706331977	1
0	4589	743.915781173773	0
0	4598	744.516496871834	1
0	4599	744.574067045027	0
0	4638	751.12570077093	1
0	4639	751.354684754149	0
0	4648	752.89528940678	1
0	4649	752.924111750888	0
0	4668	755.82533521789	1
0	4669	755.902306793368	0
0	4673	756.176532135631	1
0	4674	756.196367094407	0
0	4685	758.117117401991	1
0	4686	758.220419017026	0
0	4689	758.46047946273	1
0	4690	758.514479318065	0
0	4699	758.885477683375	1
0	4700	759.138593164977	0
0	4709	761.106277468747	1
0	4710	761.144139830536	0
0	4729	765.048330338493	1
0	4730	765.320481528876	0
0	4739	765.759997893002	1
0	4741	765.872581719896	2
0	4742	766.008507783709	1
0	4746	766.037637408435	2
0	4747	766.302568084748	1
0	4750	766.596628385787	0
0	4754	766.847198659385	1
0	4755	766.890688686826	0
0	4759	766.944302336395	1
0	4760	767.184748987865	0
0	4784	770.621221082983	1
0	4785	770.910170591591	0
0	4819	782.325593195805	1
0	4820	782.400653946692	0
0	4834	784.184893151104	1
0	4837	784.5583435366	0
0	4840	784.767303171429	1
0	4841	784.852403837639	0
0	4875	792.096537583274	1
0	4876	792.120117113552	0
0	4885	794.488926437182	1
0	4887	794.649754500563	2
0	4888	794.739359068834	1
0	4892	794.865194442063	2
0	4893	795.033419369873	1
0	4897	795.320915304196	2
0	4898	795.327479670912	1
0	4901	795.621539971951	0
0	4915	798.273531934273	1
0	4916	798.549503468599	0
0	4935	802.923355018557	1
0	4936	802.932147211359	0
0	4945	804.03865835852	1
0	4946	804.128225645189	0
0	4950	804.129526050703	1
0	4952	804.158775098577	2
0	4953	804.422285946228	1
0	4957	804.453938999187	2
0	4958	804.716346247267	1
0	4961	805.010406548306	0
0	4996	815.029944744708	1
0	4997	815.258806859539	0
0	5011	817.608328720438	1
0	5012	817.689610313698	0
0	5021	818.733754738542	1
0	5022	818.876426408016	0
0	5046	821.708589872908	1
0	5047	821.902947920912	0
0	5051	822.077495155465	1
0	5052	822.197008221951	0
0	5071	826.419677799269	1
0	5072	826.422774038422	0
0	5076	826.478554279916	1
0	5077	826.716834339461	0
0	5081	826.987874763901	1
0	5082	827.0108946405	0
0	5086	827.181695473177	1
0	5087	827.304954941539	0
0	5091	827.394117663403	1
0	5093	827.519040642481	2
0	5094	827.599015242578	1
0	5097	827.893075543617	0
0	5116	829.851844230907	1
0	5118	829.939375193971	2
0	5119	830.098618627544	1
0	5123	830.124108442183	2
0	5124	830.392678928583	1
0	5128	830.414684291706	2
0	5129	830.686739229622	1
0	5132	830.980799530661	0
0	5136	831.235314211373	1
0	5139	831.480674530085	0
0	5162	838.599321709542	1
0	5163	838.75617559256	0
0	5202	844.75967731229	1
0	5203	844.859335340577	0
0	5217	848.057171069042	1
0	5219	848.188789683296	2
0	5220	848.21712669738	1
0	5223	848.511186998419	0
0	5232	849.558023682273	1
0	5233	849.753327656996	0
0	5237	849.758579514365	1
0	5238	850.047387958035	0
0	5242	850.299569957864	1
0	5243	850.341448259074	0
0	5247	850.382349256636	1
0	5248	850.635508560113	0
0	5262	854.258868769746	1
0	5263	854.322854652879	0
0	5277	856.393271148764	1
0	5278	856.485330149386	0
0	5298	862.601585416435	1
0	5300	862.641149696429	2
0	5302	862.649280857591	3
0	5303	862.658761893852	2
0	5306	862.952822194891	1
0	5309	863.24688249593	0
0	5313	863.342822217883	1
0	5314	863.540942796969	0
0	5348	871.179366893283	1
0	5350	871.339318092826	2
0	5351	871.405528081459	1
0	5354	871.699588382498	0
0	5368	874.664717141165	1
0	5370	874.878676414449	2
0	5372	874.881996872518	3
0	5373	874.907513803369	2
0	5377	874.918503121469	3
0	5379	875.141341161697	4
0	5380	875.201574104408	3
0	5384	875.29670833551	4
0	5385	875.495634405447	3
0	5389	875.747845107626	4
0	5390	875.789694706486	3
0	5393	876.083755007525	2
0	5397	876.137649296258	3
0	5398	876.377815308564	2
0	5401	876.671875609603	1
0	5405	876.672289613146	2
0	5406	876.965935910642	1
0	5410	877.057238261932	2
0	5411	877.259996211681	1
0	5414	877.55405651272	0
0	5423	877.880440309768	1
0	5425	878.134880400186	2
0	5426	878.165068809378	1
0	5429	878.459129110417	0
0	5438	879.132563740114	1
0	5441	879.503856609933	0
0	5459	882.087502156409	1
0	5460	882.198202565258	0
0	5464	882.243961056971	1
0	5465	882.492262866297	0
0	5504	892.162638274126	1
0	5505	892.311603581542	0
0	5539	897.571441927172	1
0	5540	897.676278528081	0
0	5544	897.91988560259	1
0	5545	897.97033882912	0
0	5554	899.074833924826	1
0	5555	899.209386012747	0
0	5559	899.24155871432	1
0	5560	899.503446313786	0
0	5564	899.507996980018	1
0	5566	899.713204622958	2
0	5567	899.797506614825	1
0	5571	899.921810451081	2
0	5572	900.091566915864	1
0	5575	900.385627216903	0
0	5584	904.663816740162	1
0	5585	904.823711652987	0
0	5589	905.087431313842	1
0	5592	905.323586652411	0
0	5625	914.167709985512	1
0	5627	914.421113161102	2
0	5628	914.421756671502	1
0	5631	914.715816972541	0
0	5645	920.195108817548	1
0	5646	920.304317660871	0
0	5650	920.492467579978	1
0	5651	920.59837796191	0
0	5670	922.037452830178	1
0	5671	922.158427441479	0
0	5685	925.67516245823	1
0	5686	925.733819340087	0
0	5700	926.859941330642	1
0	5701	927.057188840055	0
0	5740	934.094614827315	1
0	5743	934.585522776642	0
0	5756	936.870618609765	1
0	5757	936.932781195014	0
0	5761	937.072411679322	1
0	5762	937.226841496053	0
0	5791	943.801259179343	1
0	5792	943.814261128732	0
0	5801	944.505438205648	1
0	5803	944.596333613616	2
0	5804	944.632444819265	1
0	5807	944.926505120304	0
0	5856	957.659952792375	1
0	5857	957.740471138019	0
0	5861	957.796003867909	1
0	5862	958.034531439058	0
0	5876	960.281702663688	1
0	5877	960.465155553367	0
0	5897	966.847571728019	1
0	5898	966.960726709451	0
0	5907	968.083354059063	1
0	5908	968.146600818102	0
0	5947	975.91892575319	1
0	5949	975.951871911651	2
0	5951	975.962593997844	3
0	5952	975.969882078673	2
0	5955	976.263942379712	1
0	5958	976.558002680751	0
0	5962	976.56113591777	1
0	5963	976.85206298179	0
0	5967	976.917227041355	1
0	5968	977.146123282829	0
0	5972	977.303472829598	1
0	5973	977.440183583868	0
0	5992	979.315167071971	1
0	5993	979.476388699674	0
0	5997	979.575218057682	1
0	5998	979.770449000713	0
0	6048	990.475132408307	1
0	6049	990.681453648856	0
0	6088	996.369453891376	1
0	6089	996.481332238371	0
0	6098	996.903149509615	1
0	6099	997.193235175045	0
0	6103	997.311484573044	1
0	6104	997.487295476084	0
1	6	0.333114470762	0.104725640983
1	16	1.096468766707	0.220723361295
1	26	2.134479256643	0.272113682846
1	56	7.965707831305	0.248820775952
1	71	10.085207337281	0.236284970564
1	76	10.37926763832	0.132458980861
1	121	16.487190190032	0.162068764647
1	162	23.050704250562	0.0999067758
1	167	23.344764551601	0.173940439928
1	192	26.369938828325	0.241299659148
1	222	31.249877180166	0.237181250957
1	227	31.543937481205	0.052706379049
1	242	34.787925703812	0.272711670061
1	262	38.0718386181	0.197643936349
1	272	38.71054517266	0.08605270034
1	277	39.004605473699	0.2918556257
1	287	39.661639129186	0.150304392785
1	292	39.955699430225	0.129667072122
1	297	40.249759731264	0.198875524195
1	313	44.038722208828	0.2575774164
1	333	48.729894851203	0.137580517256
1	353	51.626787418879	0.076744092849
1	375	54.681588022546	0.041919346114
1	380	54.975648323585	0.323453743544
1	383	55.269708624624	0.337024374765
1	413	63.312858065212	0.074062735781
1	418	63.606918366251	0.286479552432
1	433	64.84888769275	0.192734096462
1	443	66.56428745475	0.25278832511
1	459	68.44515578964	0.188215437947
1	469	71.229826300068	0.002630022428
1	479	73.044397455091	0.115240310667
1	489	73.791553806925	0.162321611205
1	499	75.177225264389	0.101455347854
1	514	76.503285781606	0.265749616489
1	524	78.450063558454	0.197663075491
1	539	79.69040489943	0.267708347931
1	554	80.793601380796	0.090667702063
1	569	82.496548388702	0.038998424767
1	610	86.898990421821	0.002518374187
1	655	97.338305539539	0.013365097601
1	670	101.280232017121	0.272625372923
1	695	104.23309277699	0.034298396698
1	705	105.823857882497	0.015899767806
1	732	109.926638787442	0.183580623974
1	735	110.220699088481	0.419641197656
1	740	110.51475938952	0.07404728458
1	757	114.664238965658	0.405576129837
1	761	114.958299266697	0.14908210657
1	791	123.42534178792	0.282316605714
1	801	125.13488016273	0.076230876424
1	806	125.428940463769	0.13416102272
1	816	126.64200195254	0.042626185075
1	851	137.339368436662	0.098695891167
1	856	137.633428737701	0.111789016542
1	881	141.175245480341	0.003141299305
1	922	151.357279948448	0.007203493434
1	929	151.651340249487	0.179497798994
1	934	151.945400550526	0.304991705351
1	937	152.239460851565	0.491443588816
1	952	153.977604434773	0.024915369574
1	984	159.54209082269	0.2438758682
1	987	159.836151123729	0.378614582645
1	1004	161.672727747364	0.220882715937
1	1007	161.966788048403	0.395536292986
1	1017	163.39137256198	0.141445131903
1	1037	165.279114812689	0.194458142223
1	1042	165.573175113728	0.027782769707
1	1070	171.018220073415	0.293539191022
1	1073	171.312280374454	0.335465469504
1	1078	171.606340675493	0.170359033511
1	1098	174.453280869554	0.228601378329
1	1103	174.747341170593	0.126369857395
1	1110	175.041401471632	0.108332736561
1	1113	175.335461772671	0.345954984559
1	1118	175.62952207371	0.221458051186
1	1123	175.923582374749	0.149111691695
1	1130	176.217642675788	0.276840373341
1	1133	176.511702976827	0.404785323727
1	1143	177.111273701237	0.099253520485
1	1178	184.424991212149	0.262669538682
1	1203	188.795414412084	0.093014045135
1	1214	191.903218366804	0.027281934066
1	1219	192.197278667843	0.086473932504
1	1239	193.943690164808	0.233306574143
1	1256	196.733020026575	0.168352596615
1	1259	197.027080327614	0.362207657674
1	1264	197.321140628653	0.222000269932
1	1274	199.287570717036	0.004402293368
1	1299	203.003969572057	0.28115515135
1	1304	203.298029873096	0.120529376519
1	1319	207.976183865492	0.280182957918
1	1324	208.270244166531	0.263449184254
1	1354	216.670730668457	0.15017546034
1	1361	217.170605667881	0.07098386353
1	1370	218.81455398797	0.180142139759
1	1380	219.780285000672	0.104041566993
1	1385	220.074345301711	0.256389651993
1	1400	222.640375886676	0.230002227897
1	1405	222.934436187715	0.160092654487
1	1410	223.228496488754	0.130904969052
1	1420	224.34244422179	0.288212352025
1	1457	236.46126459225	0.250230417249
1	1462	236.755324893289	0.505529064947
1	1465	237.049385194328	0.382378019974
1	1485	239.779050735967	0.250580158116
1	1516	245.33935871395	0.135645334652
1	1521	245.633419014989	0.079831020117
1	1551	253.05166112905	0.271081052088
1	1563	254.306319891564	0.14316302645
1	1568	254.600380192603	0.327559739422
1	1573	254.894440493642	0.42716704946
1	1576	255.188500794681	0.421310179029
1	1603	258.740922176673	0.247370069841
1	1606	259.034982477712	0.407155973727
1	1631	262.800086933165	0.212015264558
1	1643	263.805945721173	0.272551713288
1	1646	264.100006022212	0.397617867298
1	1674	269.357622493866	0.28363544457
1	1677	269.651682794905	0.310986743757
1	1682	269.945743095944	0.122496834405
1	1687	270.239803396983	0.165713470108
1	1694	270.533863698022	0.200823217078
1	1699	270.827923999061	0.375816892851
1	1702	271.1219843001	0.355217450054
1	1709	271.416044601139	0.293835503115
1	1712	271.710104902178	0.307471542413
1	1732	275.889918697632	0.203838381569
1	1737	276.183978998671	0.003820146186
1	1764	280.188316881496	0.123578554327
1	1767	280.482377182535	0.308192782054
1	1772	280.776437483574	0.114571514686
1	1777	281.070497784613	0.109574073493
1	1787	281.759987885039	0.293525021672
1	1797	282.592692028952	0.111847524591
1	1843	289.209238202624	0.240906359322
1	1863	292.326891092225	0.288324017271
1	1873	294.883493686669	0.291287782582
1	1908	300.822970088491	0.034067911923
1	1938	305.223266946928	0.136058054326
1	1948	310.754465222477	0.094637534163
1	1979	317.07274094932	0.020279141496
1	1996	319.027673190413	0.242028341028
1	1999	319.321733491452	0.42031982327
1	2006	319.615793792491	0.144719771384
1	2009	319.90985409353	0.317564356848
1	2014	320.203914394569	0.277729524198
1	2019	320.497974695608	0.050810359215
1	2024	320.792034996647	0.197847246611
1	2029	321.086095297686	0.279001642394
1	2034	321.380155598725	0.063893613143
1	2044	322.650051275886	0.25304560856
1	2084	330.30409352496	0.247487891644
1	2089	330.598153825999	0.261397746991
1	2118	338.214090972821	0.149579979704
1	2122	338.50815127386	0.403140803843
1	2129	338.802211574899	0.577415103902
1	2132	339.096271875938	0.485027101841
1	2135	339.390332176977	0.65351449283
1	2170	348.948304583227	0.167694352155
1	2190	352.058803289364	0.278328044175
1	2195	352.352863590403	0.192207826744
1	2210	355.390007399024	0.207337615593
1	2225	357.231340816902	0.158355271971
1	2271	363.221067115018	0.123584272053
1	2281	363.968713204596	0.186241015805
1	2296	366.513924846225	0.281554461515
1	2301	366.807985147264	0.041964187657
1	2331	372.651297888147	0.057504699776
1	2336	372.945358189186	0.22107699824
1	2371	381.511665504577	0.167569389011
1	2383	383.851603688132	0.20118669506
1	2386	384.145663989171	0.295170079071
1	2396	384.94882671928	0.132581264888
1	2452	393.783800316163	0.106760515316
1	2457	394.077860617202	0.02881065487
1	2472	396.389961684551	0.219985362396
1	2497	400.311832795658	0.029220312205
1	2504	400.605893096697	0.242049864278
1	2507	400.899953397736	0.381325953733
1	2512	401.194013698775	0.24216418672
1	2517	401.488073999814	0.176881650603
1	2529	402.424376328725	0.089167671866
1	2532	402.718436629764	0.333439139448
1	2562	407.914471383122	0.13973282252
1	2571	408.414346382546	0.408339623435
1	2573	408.708406683585	0.565385593717
1	2608	415.41888525265	0.182110520116
1	2618	417.137404663944	0.244904142267
1	2623	417.431464964983	0.107672814213
1	2710	431.36704792609	0.161953705373
1	2713	431.661108227129	0.374063350631
1	2722	432.160983226553	0.469046805005
1	2726	432.455043527592	0.330189961595
1	2731	432.749103828631	0.321703666841
1	2734	433.04316412967	0.299620041135
1	2739	433.337224430709	0.040929298588
1	2744	433.631284731748	0.030430125865
1	2764	435.750667107711	0.135391137533
1	2769	436.04472740875	0.039683188762
1	2774	436.338787709789	0.130222647537
1	2796	439.389925906286	0.13680691929
1	2799	439.683986207325	0.372946383531
1	2844	450.344930730742	0.249771728494
1	2855	450.638991031781	0.274491353609
1	2860	450.93305133282	0.543582296817
1	2863	451.227111633859	0.79881250264
1	2866	451.521171934898	0.914150763537
1	2871	452.021046934322	1.22310204862
1	2883	452.971165525051	0.189523564901
1	2895	455.370211382061	0.158609756646
1	2898	455.6642716831	0.316502237823
1	2928	462.348081089212	0.05982179327
1	2968	469.615073260847	0.060053984812
1	2980	470.763781745493	0.23631109363
1	2985	471.057842046532	0.461772090449
1	2988	471.351902347571	0.484772715375
1	3029	479.515914330218	0.273535540404
1	3039	480.283262305305	0.213174104841
1	3074	488.853484495751	0.18591687254
1	3081	489.14754479679	0.238814362558
1	3084	489.441605097829	0.487438454336
1	3114	494.482238886493	0.04867957796
1	3119	494.776299187532	0.198390685892
1	3124	495.070359488571	0.134482145716
1	3139	500.062181985389	0.066475451848
1	3154	503.247056648178	0.117422557489
1	3159	503.541116949217	0.09798887464
1	3222	516.211018653412	0.293198541917
1	3225	516.505078954451	0.477927520907
1	3240	518.457723627037	0.005676157145
1	3265	524.713791668743	0.216357128448
1	3302	530.142045412718	0.244712507807
1	3305	530.436105713757	0.351277657817
1	3322	535.767584929501	0.070813491713
1	3329	536.267459928925	0.507653496848
1	3331	536.561520229964	0.761435021258
1	3341	537.76809832232	0.185608278563
1	3346	538.062158623359	0.0893350219
1	3401	548.805537255151	0.006065182132
1	3406	549.09959755619	0.135114499617
1	3421	550.733640095397	0.215127855663
1	3426	551.027700396436	0.280793179726
1	3443	554.551367287757	0.244995631636
1	3448	554.845427588796	0.440535144422
1	3453	555.139487889835	0.528697560118
1	3456	555.433548190874	0.554391111697
1	3487	563.573144933301	0.09107037016
1	3497	564.206315553836	0.004936637127
1	3517	566.18414323728	0.010506662573
1	3539	567.754963473828	0.274909276303
1	3544	568.049023774867	0.294977195282
1	3547	568.343084075906	0.585688556615
1	3562	570.507914429108	0.137574079839
1	3572	571.522786864176	0.260023685537
1	3582	574.34565059244	0.16734204151
1	3629	586.341957969645	0.229635217361
1	3668	593.369862439398	0.008310453268
1	3678	594.8816603478	0.26622003303
1	3690	596.0025288248	0.265742506589
1	3695	596.296589125839	0.381902001711
1	3698	596.590649426878	0.481641510749
1	3708	598.977215366379	0.018046337686
1	3718	600.853464912496	0.279332280028
1	3728	602.33211094539	0.031285599376
1	3753	606.045198182876	0.073942794618
1	3773	608.758302425683	0.018127939852
1	3782	609.258177425107	0.267454749584
1	3784	609.552237726146	0.478048278254
1	3794	610.873127135777	0.076152302073
1	3824	617.245864230836	0.247643682703
1	3839	622.13787522083	0.21540696335
1	3846	622.431935521869	0.239238328268
1	3849	622.725995822908	0.473882237128
1	3854	623.020056123947	0.258321656514
1	3864	624.158935762845	0.290176064597
1	3869	624.452996063884	0.007581535562
1	3879	625.116153940274	0.085993979483
1	3884	625.410214241313	0.072454323477
1	3914	635.511557427754	0.154391845095
1	3919	635.805617728793	0.237936376149
1	3931	636.73363859161	0.250465719657
1	3950	639.235377469038	0.012115668492
1	3960	640.861692906755	0.006129019269
1	3985	644.623723049657	0.071000101142
1	3995	648.133648615909	0.272506448788
1	4050	659.633161840273	0.047833025209
1	4060	660.457248371223	0.15307390456
1	4075	661.81358794058	0.073934915459
1	4082	662.313462940004	0.26151833492
1	4106	666.202784749217	0.011351992431
1	4116	667.506952705744	0.005471387921
1	4126	669.390574192068	0.133403498909
1	4156	674.625571853418	0.191301895863
1	4185	681.93096689898	0.246497845351
1	4192	682.225027200019	0.535571834347
1	4197	682.519087501058	0.68810507061
1	4200	682.813147802097	0.768860777551
1	4203	683.107208103136	0.952789578057
1	4206	683.401268404175	0.904321857654
1	4233	689.283490530814	0.414352716678
1	4242	689.886280209738	0.139277977869
1	4251	690.180340510777	0.289386225888
1	4258	690.474400811816	0.558059635233
1	4261	690.768461112855	0.713613812989
1	4264	691.062521413894	0.853192940405
1	4267	691.356581714933	0.905155975158
1	4272	691.650642015972	0.081274834129
1	4279	691.944702317011	0.248692538845
1	4282	692.23876261805	0.417267940623
1	4307	697.657107417878	0.24146997641
1	4312	697.951167718917	0.215821513209
1	4342	704.562271205301	0.017688377018
1	4349	704.85633150634	0.205940781419
1	4352	705.150391807379	0.298200199806
1	4398	716.109189965401	0.230913250937
1	4413	718.221307804984	0.141534649049
1	4443	723.419563850248	0.094037528224
1	4465	726.294295054227	0.156625597737
1	4468	726.588355355266	0.415406848207
1	4473	726.882415656305	0.198491162436
1	4483	727.521019450106	0.177465318053
1	4488	727.815079751145	0.154054283372
1	4508	730.272204731163	0.212469527794
1	4528	734.679406019317	0.105446335768
1	4549	737.204860971212	0.248300011579
1	4569	741.623191797548	0.120528480441
1	4579	743.327660571695	0.066089036129
1	4584	743.621720872734	0.191329157471
1	4589	743.915781173773	0.054074841796
1	4599	744.574067045027	0.057570173193
1	4639	751.354684754149	0.228983983219
1	4649	752.924111750888	0.028822344108
1	4669	755.902306793368	0.076971575478
1	4674	756.196367094407	0.019834958776
1	4686	758.220419017026	0.103301615035
1	4690	758.514479318065	0.053999855335
1	4700	759.138593164977	0.253115481602
1	4710	761.144139830536	0.037862361789
1	4730	765.320481528876	0.272151190383
1	4742	766.008507783709	0.248509890707
1	4747	766.302568084748	0.429986364852
1	4750	766.596628385787	0.558990977352
1	4755	766.890688686826	0.043490027441
1	4760	767.184748987865	0.24044665147
1	4785	770.910170591591	0.288949508608
1	4820	782.400653946692	0.075060750887
1	4837	784.5583435366	0.373450385496
1	4841	784.852403837639	0.08510066621
1	4876	792.120117113552	0.023579530278
1	4888	794.739359068834	0.250432631652
1	4893	795.033419369873	0.38366486931
1	4898	795.327479670912	0.462285228849
1	4901	795.621539971951	0.300624667755
1	4916	798.549503468599	0.275971534326
1	4936	802.932147211359	0.008792192802
1	4946	804.128225645189	0.089567286669
1	4953	804.422285946228	0.292759895525
1	4958	804.716346247267	0.55757114869
1	4961	805.010406548306	0.556467549119
1	4997	815.258806859539	0.228862114831
1	5012	817.689610313698	0.08128159326
1	5022	818.876426408016	0.142671669474
1	5047	821.902947920912	0.194358048004
1	5052	822.197008221951	0.119513066486
1	5072	826.422774038422	0.003096239153
1	5077	826.716834339461	0.238280059545
1	5082	827.0108946405	0.023019876599
1	5087	827.304954941539	0.123259468362
1	5094	827.599015242578	0.204897579175
1	5097	827.893075543617	0.374034901136
1	5119	830.098618627544	0.246774396637
1	5124	830.392678928583	0.453303734612
1	5129	830.686739229622	0.562630787439
1	5132	830.980799530661	0.566115238955
1	5139	831.480674530085	0.245360318712
1	5163	838.75617559256	0.156853883018
1	5203	844.859335340577	0.099658028287
1	5220	848.21712669738	0.159955628338
1	5223	848.511186998419	0.322397315123
1	5233	849.753327656996	0.195303974723
1	5238	850.047387958035	0.28880844367
1	5243	850.341448259074	0.04187830121
1	5248	850.635508560113	0.253159303477
1	5263	854.322854652879	0.063985883133
1	5278	856.485330149386	0.092059000622
1	5303	862.658761893852	0.057176477417
1	5306	862.952822194891	0.311672498462
1	5309	863.24688249593	0.597601638339
1	5314	863.540942796969	0.198120579086
1	5351	871.405528081459	0.226161188176
1	5354	871.699588382498	0.360270289672
1	5373	874.907513803369	0.242796662204
1	5380	875.201574104408	0.322897689959
1	5385	875.495634405447	0.613637532929
1	5390	875.789694706486	0.871191585017
1	5393	876.083755007525	0.942413845828
1	5398	876.377815308564	1.081106973054
1	5401	876.671875609603	0.924030501977
1	5406	876.965935910642	0.828286614384
1	5411	877.259996211681	0.587706598535
1	5414	877.55405651272	0.496818250788
1	5426	878.165068809378	0.28462849961
1	5429	878.459129110417	0.324248710231
1	5441	879.503856609933	0.371292869819
1	5460	882.198202565258	0.110700408849
1	5465	882.492262866297	0.248301809326
1	5505	892.311603581542	0.148965307416
1	5540	897.676278528081	0.104836600909
1	5545	897.97033882912	0.05045322653
1	5555	899.209386012747	0.134552087921
1	5560	899.503446313786	0.261887599466
1	5567	899.797506614825	0.289509634807
1	5572	900.091566915864	0.378362292906
1	5575	900.385627216903	0.463816765822
1	5585	904.823711652987	0.159894912825
1	5592	905.323586652411	0.236155338569
1	5628	914.421756671502	0.25404668599
1	5631	914.715816972541	0.294703811439
1	5646	920.304317660871	0.109208843323
1	5651	920.59837796191	0.105910381932
1	5671	922.158427441479	0.120974611301
1	5686	925.733819340087	0.058656881857
1	5701	927.057188840055	0.197247509413
1	5743	934.585522776642	0.490907949327
1	5757	936.932781195014	0.062162585249
1	5762	937.226841496053	0.154429816731
1	5792	943.814261128732	0.013001949389
1	5804	944.632444819265	0.127006613617
1	5807	944.926505120304	0.330171506688
1	5857	957.740471138019	0.080518345644
1	5862	958.034531439058	0.238527571149
1	5877	960.465155553367	0.183452889679
1	5898	966.960726709451	0.113154981432
1	5908	968.146600818102	0.063246759039
1	5952	975.969882078673	0.050956325483
1	5955	976.263942379712	0.312070468061
1	5958	976.558002680751	0.595408682907
1	5963	976.85206298179	0.29092706402
1	5968	977.146123282829	0.228896241474
1	5973	977.440183583868	0.13671075427
1	5993	979.476388699674	0.161221627703
1	5998	979.770449000713	0.195230943031
1	6049	990.681453648856	0.206321240549
1	6089	996.481332238371	0.111878346995
1	6099	997.193235175045	0.29008566543
1	6104	997.487295476084	0.17581090304
2	7	0.333114470762	0.294060301039
2	10	0.627174771801	0.398785942022
2	17	1.096468766707	0.294060301039
2	20	1.390529067746	0.514783662334
2	27	2.134479256643	0.294060301039
2	30	2.428539557682	0.566173983885
2	35	5.098506764915	0.294060301039
2	40	5.528284310249	0.294060301039
2	45	5.898762706485	0.294060301039
2	50	6.295396283047	0.294060301039
2	57	7.965707831305	0.294060301039
2	60	8.259768132344	0.542881076991
2	65	8.721383372488	0.294060301039
2	72	10.085207337281	0.294060301039
2	77	10.37926763832	0.530345271603
2	80	10.673327939359	0.4265192819
2	85	11.760816664271	0.294060301039
2	90	12.155251705229	0.294060301039
2	95	13.084741200434	0.294060301039
2	100	14.241406345815	0.294060301039
2	105	14.853650998266	0.294060301039
2	110	15.508759593419	0.294060301039
2	115	15.870018676978	0.294060301039
2	122	16.487190190032	0.294060301039
2	125	16.781250491071	0.456129065686
2	130	19.190269635712	0.294060301039
2	135	19.878814072661	0.294060301039
2	140	20.282437931573	0.294060301039
2	145	21.550822729062	0.294060301039
2	150	21.993477650821	0.294060301039
2	156	22.60953964696	0.294060301039
2	163	23.050704250562	0.294060301039
2	168	23.344764551601	0.393967076839
2	171	23.63882485264	0.468000740967
2	176	24.148956227895	0.294060301039
2	181	24.767587834721	0.294060301039
2	186	25.193450484681	0.294060301039
2	193	26.369938828325	0.294060301039
2	196	26.663999129364	0.535359960187
2	201	28.604741594235	0.294060301039
2	206	29.116587415131	0.294060301039
2	211	29.971495216413	0.294060301039
2	216	30.395616579107	0.294060301039
2	223	31.249877180166	0.294060301039
2	228	31.543937481205	0.531241551996
2	231	31.837997782244	0.346766680088
2	236	32.976214659334	0.294060301039
2	243	34.787925703812	0.294060301039
2	246	35.081986004851	0.5667719711
2	251	35.817080102292	0.294060301039
2	256	36.430110848211	0.294060301039
2	263	38.0718386181	0.294060301039
2	266	38.365898919139	0.491704237388
2	273	38.71054517266	0.294060301039
2	278	39.004605473699	0.380113001379
2	281	39.298665774738	0.585915926739
2	288	39.661639129186	0.294060301039
2	293	39.955699430225	0.444364693824
2	298	40.249759731264	0.423727373161
2	301	40.543820032303	0.492935825234
2	307	41.942150742198	0.294060301039
2	314	44.038722208828	0.294060301039
2	317	44.332782509867	0.551637717439
2	322	46.714345298615	0.294060301039
2	327	47.986685846066	0.294060301039
2	334	48.729894851203	0.294060301039
2	337	49.023955152242	0.431640818295
2	342	49.324857338804	0.294060301039
2	347	49.745967310523	0.294060301039
2	354	51.626787418879	0.294060301039
2	357	51.920847719918	0.370804393888
2	362	52.477437483751	0.294060301039
2	367	52.933220177328	0.294060301039
2	376	54.681588022546	0.294060301039
2	381	54.975648323585	0.335979647153
2	384	55.269708624624	0.617514044583
2	387	55.563768925663	0.631084675804
2	392	56.822259586306	0.294060301039
2	397	58.66970928118	0.294060301039
2	402	60.395790532116	0.294060301039
2	407	62.318107591312	0.294060301039
2	414	63.312858065212	0.294060301039
2	419	63.606918366251	0.36812303682
2	422	63.90097866729	0.580539853471
2	427	64.247326742168	0.294060301039
2	434	64.84888769275	0.294060301039
2	437	65.142947993789	0.486794397501
2	444	66.56428745475	0.294060301039
2	447	66.858347755789	0.546848626149
2	452	67.437102740945	0.294060301039
2	460	68.44515578964	0.294060301039
2	463	68.739216090679	0.482275738986
2	470	71.229826300068	0.294060301039
2	473	71.523886601107	0.296690323467
2	480	73.044397455091	0.294060301039
2	483	73.33845775613	0.409300611706
2	490	73.791553806925	0.294060301039
2	493	74.085614107964	0.456381912244
2	500	75.177225264389	0.294060301039
2	503	75.471285565428	0.395515648893
2	508	76.115462842186	0.294060301039
2	515	76.503285781606	0.294060301039
2	518	76.797346082645	0.559809917528
2	525	78.450063558454	0.294060301039
2	528	78.744123859493	0.49172337653
2	533	79.068960953054	0.294060301039
2	540	79.69040489943	0.294060301039
2	543	79.984465200469	0.56176864897
2	548	80.319032536777	0.294060301039
2	555	80.793601380796	0.294060301039
2	558	81.087661681835	0.384728003102
2	563	82.066371761135	0.294060301039
2	570	82.496548388702	0.294060301039
2	573	82.790608689741	0.333058725806
2	578	83.088782742586	0.294060301039
2	583	83.387565872788	0.294060301039
2	588	84.007185817145	0.294060301039
2	593	84.699356428011	0.294060301039
2	598	86.036156758773	0.294060301039
2	603	86.385524413984	0.294060301039
2	611	86.898990421821	0.294060301039
2	614	87.19305072286	0.296578675226
2	619	89.438034985207	0.294060301039
2	624	89.967696411092	0.294060301039
2	629	90.311425694943	0.294060301039
2	634	92.461370969848	0.294060301039
2	639	93.951360815443	0.294060301039
2	644	95.113656197581	0.294060301039
2	649	96.906564874058	0.294060301039
2	656	97.338305539539	0.294060301039
2	659	97.632365840578	0.30742539864
2	664	99.663344645053	0.294060301039
2	671	101.280232017121	0.294060301039
2	674	101.57429231816	0.566685673962
2	679	102.109692987859	0.294060301039
2	684	102.629073258154	0.294060301039
2	689	103.405871968959	0.294060301039
2	696	104.23309277699	0.294060301039
2	699	104.527153078029	0.328358697737
2	706	105.823857882497	0.294060301039
2	709	106.117918183536	0.309960068845
2	714	106.798878093647	0.294060301039
2	719	108.01041646296	0.294060301039
2	724	108.629094774325	0.294060301039
2	733	109.926638787442	0.294060301039
2	736	110.220699088481	0.477640925013
2	741	110.51475938952	0.713701498695
2	744	110.808819690559	0.368107585619
2	749	111.766738816555	0.294060301039
2	756	114.458424267273	0.294060301039
2	762	114.958299266697	0.699636430876
2	765	115.252359567736	0.443142407609
2	770	117.921674695456	0.294060301039
2	775	119.052687349202	0.294060301039
2	780	119.634819193005	0.294060301039
2	785	120.332231771298	0.294060301039
2	792	123.42534178792	0.294060301039
2	795	123.719402088959	0.576376906753
2	802	125.13488016273	0.294060301039
2	807	125.428940463769	0.370291177463
2	810	125.723000764808	0.428221323759
2	817	126.64200195254	0.294060301039
2	820	126.936062253579	0.336686486114
2	825	127.952948659854	0.294060301039
2	830	128.408880860317	0.294060301039
2	835	129.845257723288	0.294060301039
2	840	131.683535109114	0.294060301039
2	845	136.405687199078	0.294060301039
2	852	137.339368436662	0.294060301039
2	857	137.633428737701	0.392756192206
2	860	137.92748903874	0.405849317581
2	865	138.795785217386	0.294060301039
2	870	139.183134178623	0.294060301039
2	875	140.238931111205	0.294060301039
2	882	141.175245480341	0.294060301039
2	885	141.46930578138	0.297201600344
2	890	142.386349448703	0.294060301039
2	895	142.680517943146	0.294060301039
2	900	147.551033714551	0.294060301039
2	905	148.580698488917	0.294060301039
2	911	149.120551431101	0.294060301039
2	916	150.992162341969	0.294060301039
2	923	151.357279948448	0.294060301039
2	930	151.651340249487	0.301263794473
2	935	151.945400550526	0.473558100033
2	938	152.239460851565	0.59905200639
2	941	152.533521152604	0.785503889855
2	946	153.002625817406	0.294060301039
2	953	153.977604434773	0.294060301039
2	956	154.271664735812	0.318975670613
2	961	155.353218944868	0.294060301039
2	966	157.248612109089	0.294060301039
2	971	157.869036169456	0.294060301039
2	976	158.353011275371	0.294060301039
2	985	159.54209082269	0.294060301039
2	988	159.836151123729	0.537936169239
2	991	160.130211424768	0.672674883684
2	996	161.234921131516	0.294060301039
2	1005	161.672727747364	0.294060301039
2	1008	161.966788048403	0.514943016976
2	1011	162.260848349442	0.689596594025
2	1018	163.39137256198	0.294060301039
2	1021	163.685432863019	0.435505432942
2	1026	164.061071813021	0.294060301039
2	1031	164.44317100863	0.294060301039
2	1038	165.279114812689	0.294060301039
2	1043	165.573175113728	0.488518443262
2	1046	165.867235414767	0.321843070746
2	1051	166.725713042585	0.294060301039
2	1056	168.242567572824	0.294060301039
2	1062	169.591718445102	0.294060301039
2	1071	171.018220073415	0.294060301039
2	1074	171.312280374454	0.587599492061
2	1079	171.606340675493	0.629525770543
2	1082	171.900400976532	0.46441933455
2	1087	173.006291180122	0.294060301039
2	1092	173.876514656151	0.294060301039
2	1099	174.453280869554	0.294060301039
2	1104	174.747341170593	0.522661679368
2	1111	175.041401471632	0.420430158434
2	1114	175.335461772671	0.4023930376
2	1119	175.62952207371	0.640015285598
2	1124	175.923582374749	0.515518352225
2	1131	176.217642675788	0.443171992734
2	1134	176.511702976827	0.57090067438
2	1137	176.805763277866	0.698845624766
2	1144	177.111273701237	0.294060301039
2	1147	177.405334002276	0.393313821524
2	1152	180.870409493553	0.294060301039
2	1157	181.426694853993	0.294060301039
2	1162	182.397429714027	0.294060301039
2	1167	183.06785880586	0.294060301039
2	1172	183.939047048384	0.294060301039
2	1179	184.424991212149	0.294060301039
2	1182	184.719051513188	0.556729839721
2	1187	185.878878385548	0.294060301039
2	1192	186.984441490159	0.294060301039
2	1197	188.221791055984	0.294060301039
2	1204	188.795414412084	0.294060301039
2	1207	189.089474713123	0.387074346174
2	1215	191.903218366804	0.294060301039
2	1220	192.197278667843	0.321342235105
2	1223	192.491338968882	0.380534233543
2	1228	193.255434809599	0.294060301039
2	1233	193.631212582019	0.294060301039
2	1240	193.943690164808	0.294060301039
2	1243	194.237750465847	0.527366875182
2	1248	194.624200938826	0.294060301039
2	1257	196.733020026575	0.294060301039
2	1260	197.027080327614	0.462412897654
2	1265	197.321140628653	0.656267958713
2	1268	197.615200929692	0.516060570971
2	1275	199.287570717036	0.294060301039
2	1278	199.581631018075	0.298462594407
2	1283	200.720554525876	0.294060301039
2	1288	201.863687668444	0.294060301039
2	1293	202.330400516728	0.294060301039
2	1300	203.003969572057	0.294060301039
2	1305	203.298029873096	0.575215452389
2	1308	203.592090174135	0.414589677558
2	1313	205.182302301444	0.294060301039
2	1320	207.976183865492	0.294060301039
2	1325	208.270244166531	0.574243258957
2	1328	208.56430446757	0.557509485293
2	1333	209.536688241263	0.294060301039
2	1338	210.312759677827	0.294060301039
2	1343	211.576076309966	0.294060301039
2	1348	214.202491896439	0.294060301039
2	1355	216.670730668457	0.294060301039
2	1358	216.964790969496	0.444235761379
2	1364	217.46466596892	0.365044164569
2	1371	218.81455398797	0.294060301039
2	1374	219.108614289009	0.474202440798
2	1381	219.780285000672	0.294060301039
2	1386	220.074345301711	0.398101868032
2	1389	220.36840560275	0.550449953032
2	1394	221.518544936649	0.294060301039
2	1401	222.640375886676	0.294060301039
2	1406	222.934436187715	0.524062528936
2	1411	223.228496488754	0.454152955526
2	1414	223.522556789793	0.424965270091
2	1421	224.34244422179	0.294060301039
2	1424	224.636504522829	0.582272653064
2	1429	225.808072174716	0.294060301039
2	1434	229.32079003553	0.294060301039
2	1439	231.06918048006	0.294060301039
2	1444	231.710899462135	0.294060301039
2	1449	236.07930202872	0.294060301039
2	1458	236.46126459225	0.294060301039
2	1463	236.755324893289	0.544290718288
2	1466	237.049385194328	0.799589365986
2	1469	237.343445495367	0.676438321013
2	1474	237.892163264573	0.294060301039
2	1479	238.76032743187	0.294060301039
2	1486	239.779050735967	0.294060301039
2	1489	240.073111037006	0.544640459155
2	1494	240.663799510452	0.294060301039
2	1499	242.092921753594	0.294060301039
2	1504	243.869266347678	0.294060301039
2	1509	244.196542344099	0.294060301039
2	1517	245.33935871395	0.294060301039
2	1522	245.633419014989	0.429705635691
2	1525	245.927479316028	0.373891321156
2	1530	246.433558084732	0.294060301039
2	1535	246.925266230905	0.294060301039
2	1540	247.314642497611	0.294060301039
2	1545	252.323995207889	0.294060301039
2	1552	253.05166112905	0.294060301039
2	1555	253.345721430089	0.565141353127
2	1564	254.306319891564	0.294060301039
2	1569	254.600380192603	0.437223327489
2	1574	254.894440493642	0.621620040461
2	1577	255.188500794681	0.721227350499
2	1580	255.48256109572	0.715370480068
2	1585	256.466675262422	0.294060301039
2	1590	256.975975141703	0.294060301039
2	1595	258.157874703864	0.294060301039
2	1604	258.740922176673	0.294060301039
2	1607	259.034982477712	0.54143037088
2	1610	259.329042778751	0.701216274766
2	1615	260.687150443501	0.294060301039
2	1620	261.461335110138	0.294060301039
2	1625	261.768389666954	0.294060301039
2	1632	262.800086933165	0.294060301039
2	1635	263.094147234204	0.506075565597
2	1644	263.805945721173	0.294060301039
2	1647	264.100006022212	0.566612014327
2	1650	264.394066323251	0.691678168337
2	1655	264.863484971246	0.294060301039
2	1660	267.342399094281	0.294060301039
2	1666	269.047117292315	0.294060301039
2	1675	269.357622493866	0.294060301039
2	1678	269.651682794905	0.577695745609
2	1683	269.945743095944	0.605047044796
2	1688	270.239803396983	0.416557135444
2	1695	270.533863698022	0.459773771147
2	1700	270.827923999061	0.494883518117
2	1703	271.1219843001	0.66987719389
2	1710	271.416044601139	0.649277751093
2	1713	271.710104902178	0.587895804154
2	1716	272.004165203217	0.601531843452
2	1721	274.652795309057	0.294060301039
2	1726	275.305619474735	0.294060301039
2	1733	275.889918697632	0.294060301039
2	1738	276.183978998671	0.497898682608
2	1741	276.47803929971	0.297880447225
2	1746	277.2715861373	0.294060301039
2	1751	277.716265249151	0.294060301039
2	1756	279.292369740388	0.294060301039
2	1765	280.188316881496	0.294060301039
2	1768	280.482377182535	0.417638855366
2	1773	280.776437483574	0.602253083093
2	1778	281.070497784613	0.408631815725
2	1781	281.364558085652	0.403634374532
2	1788	281.759987885039	0.294060301039
2	1791	282.054048186078	0.587585322711
2	1798	282.592692028952	0.294060301039
2	1801	282.886752329991	0.40590782563
2	1806	283.464926034676	0.294060301039
2	1811	284.601571029899	0.294060301039
2	1817	285.6070740418	0.294060301039
2	1822	286.046129569434	0.294060301039
2	1827	286.77031130495	0.294060301039
2	1832	287.290073856941	0.294060301039
2	1837	287.952065888873	0.294060301039
2	1844	289.209238202624	0.294060301039
2	1847	289.503298503663	0.534966660361
2	1852	289.95924496285	0.294060301039
2	1857	290.886106071511	0.294060301039
2	1864	292.326891092225	0.294060301039
2	1867	292.620951393264	0.58238431831
2	1874	294.883493686669	0.294060301039
2	1877	295.177553987708	0.585348083621
2	1882	296.010986544874	0.294060301039
2	1887	296.469621800684	0.294060301039
2	1892	297.939646824311	0.294060301039
2	1897	298.856052500983	0.294060301039
2	1902	300.020198881051	0.294060301039
2	1909	300.822970088491	0.294060301039
2	1912	301.11703038953	0.328128212962
2	1917	302.004512817018	0.294060301039
2	1922	302.585144529222	0.294060301039
2	1927	303.316793562551	0.294060301039
2	1932	303.732255454956	0.294060301039
2	1939	305.223266946928	0.294060301039
2	1942	305.517327247967	0.430118355365
2	1949	310.754465222477	0.294060301039
2	1952	311.048525523516	0.388697835202
2	1957	314.807133625458	0.294060301039
2	1962	315.500086308268	0.294060301039
2	1968	316.29418792909	0.294060301039
2	1973	316.761301645431	0.294060301039
2	1980	317.07274094932	0.294060301039
2	1983	317.366801250359	0.314339442535
2	1988	318.571286620397	0.294060301039
2	1997	319.027673190413	0.294060301039
2	2000	319.321733491452	0.536088642067
2	2007	319.615793792491	0.714380124309
2	2010	319.90985409353	0.438780072423
2	2015	320.203914394569	0.611624657887
2	2020	320.497974695608	0.571789825237
2	2025	320.792034996647	0.344870660254
2	2030	321.086095297686	0.49190754765
2	2035	321.380155598725	0.573061943433
2	2038	321.674215899764	0.357953914182
2	2045	322.650051275886	0.294060301039
2	2048	322.944111576925	0.547105909599
2	2053	323.510450790913	0.294060301039
2	2058	324.094532251062	0.294060301039
2	2063	324.885342894028	0.294060301039
2	2068	327.963039555418	0.294060301039
2	2073	329.042293446553	0.294060301039
2	2078	329.802651840412	0.294060301039
2	2085	330.30409352496	0.294060301039
2	2090	330.598153825999	0.541548192683
2	2093	330.892214127038	0.55545804803
2	2098	333.489424621866	0.294060301039
2	2103	336.326202981952	0.294060301039
2	2108	336.737608732492	0.294060301039
2	2113	338.008276274436	0.294060301039
2	2123	338.50815127386	0.443640280743
2	2130	338.802211574899	0.697201104882
2	2133	339.096271875938	0.871475404941
2	2136	339.390332176977	0.77908740288
2	2139	339.684392478016	0.947574793869
2	2144	341.047494194775	0.294060301039
2	2149	341.60480142075	0.294060301039
2	2154	344.435036057752	0.294060301039
2	2159	345.684614432529	0.294060301039
2	2164	347.836550462248	0.294060301039
2	2171	348.948304583227	0.294060301039
2	2174	349.242364884266	0.461754653194
2	2179	349.896100168536	0.294060301039
2	2184	350.924583433965	0.294060301039
2	2191	352.058803289364	0.294060301039
2	2196	352.352863590403	0.572388345214
2	2199	352.646923891442	0.486268127783
2	2204	354.155860389597	0.294060301039
2	2211	355.390007399024	0.294060301039
2	2214	355.684067700063	0.501397916632
2	2219	356.700449714066	0.294060301039
2	2226	357.231340816902	0.294060301039
2	2229	357.525401117941	0.45241557301
2	2234	357.852996963644	0.294060301039
2	2239	358.275297497625	0.294060301039
2	2244	358.571600755289	0.294060301039
2	2249	359.403139793189	0.294060301039
2	2254	359.988862794536	0.294060301039
2	2259	361.511868859968	0.294060301039
2	2264	362.324531796791	0.294060301039
2	2272	363.221067115018	0.294060301039
2	2275	363.515127416057	0.417644573092
2	2282	363.968713204596	0.294060301039
2	2285	364.262773505635	0.480301316844
2	2290	364.642609898538	0.294060301039
2	2297	366.513924846225	0.294060301039
2	2302	366.807985147264	0.575614762554
2	2305	367.102045448303	0.336024488696
2	2310	367.480780321531	0.294060301039
2	2315	367.841022412641	0.294060301039
2	2320	369.845406068467	0.294060301039
2	2325	371.449716271748	0.294060301039
2	2332	372.651297888147	0.294060301039
2	2337	372.945358189186	0.351565000815
2	2340	373.239418490225	0.515137299279
2	2345	375.348673937469	0.294060301039
2	2350	377.308484373806	0.294060301039
2	2355	378.622521101764	0.294060301039
2	2360	378.925084940419	0.294060301039
2	2365	380.114784680647	0.294060301039
2	2372	381.511665504577	0.294060301039
2	2375	381.805725805616	0.46162969005
2	2384	383.851603688132	0.294060301039
2	2387	384.145663989171	0.495246996099
2	2390	384.43972429021	0.58923038011
2	2397	384.94882671928	0.294060301039
2	2400	385.242887020319	0.426641565927
2	2405	386.21571383415	0.294060301039
2	2410	387.42360732084	0.294060301039
2	2415	387.826407225312	0.294060301039
2	2421	388.558011875808	0.294060301039
2	2426	389.233448302906	0.294060301039
2	2431	390.108529799398	0.294060301039
2	2436	390.928811117253	0.294060301039
2	2441	391.233540015158	0.294060301039
2	2446	392.506294922298	0.294060301039
2	2453	393.783800316163	0.294060301039
2	2458	394.077860617202	0.400820816355
2	2461	394.371920918241	0.322870955909
2	2466	395.299500186126	0.294060301039
2	2473	396.389961684551	0.294060301039
2	2476	396.68402198559	0.514045663435
2	2481	397.017385336393	0.294060301039
2	2486	397.684850274131	0.294060301039
2	2491	397.988834524317	0.294060301039
2	2498	400.311832795658	0.294060301039
2	2505	400.605893096697	0.323280613244
2	2508	400.899953397736	0.536110165317
2	2513	401.194013698775	0.675386254772
2	2518	401.488073999814	0.536224487759
2	2521	401.782134300853	0.470941951642
2	2530	402.424376328725	0.294060301039
2	2533	402.718436629764	0.383227972905
2	2536	403.012496930803	0.627499440487
2	2541	403.783544576656	0.294060301039
2	2546	405.358821207813	0.294060301039
2	2551	406.690750997871	0.294060301039
2	2556	407.172106470572	0.294060301039
2	2563	407.914471383122	0.294060301039
2	2570	408.208531684161	0.433793123559
2	2574	408.708406683585	0.702399924474
2	2577	409.002466984624	0.859445894756
2	2582	412.433562794724	0.294060301039
2	2587	413.244638523431	0.294060301039
2	2592	413.671101699869	0.294060301039
2	2597	414.42719435107	0.294060301039
2	2602	414.92844820656	0.294060301039
2	2609	415.41888525265	0.294060301039
2	2612	415.712945553689	0.476170821155
2	2619	417.137404663944	0.294060301039
2	2624	417.431464964983	0.538964443306
2	2627	417.725525266022	0.401733115252
2	2632	419.12242366763	0.294060301039
2	2637	419.624168700507	0.294060301039
2	2642	421.451515165196	0.294060301039
2	2647	421.800720929433	0.294060301039
2	2652	422.78804086481	0.294060301039
2	2657	423.345426972404	0.294060301039
2	2662	424.248952860249	0.294060301039
2	2667	424.545564953364	0.294060301039
2	2672	425.765387422924	0.294060301039
2	2677	426.541840080375	0.294060301039
2	2682	427.515906699359	0.294060301039
2	2687	428.178349227901	0.294060301039
2	2692	428.856739604982	0.294060301039
2	2697	429.178206163439	0.294060301039
2	2702	430.880377520559	0.294060301039
2	2711	431.36704792609	0.294060301039
2	2714	431.661108227129	0.456014006412
2	2719	431.955168528168	0.66812365167
2	2727	432.455043527592	0.763107106044
2	2732	432.749103828631	0.624250262634
2	2735	433.04316412967	0.61576396788
2	2740	433.337224430709	0.593680342174
2	2745	433.631284731748	0.334989599627
2	2748	433.925345032787	0.324490426904
2	2753	434.86189849655	0.294060301039
2	2758	435.317721083232	0.294060301039
2	2765	435.750667107711	0.294060301039
2	2770	436.04472740875	0.429451438572
2	2775	436.338787709789	0.333743489801
2	2778	436.632848010828	0.424282948576
2	2783	437.055888706825	0.294060301039
2	2788	438.643507181842	0.294060301039
2	2797	439.389925906286	0.294060301039
2	2800	439.683986207325	0.430867220329
2	2803	439.978046508364	0.66700668457
2	2808	442.606638925934	0.294060301039
2	2813	443.674402726105	0.294060301039
2	2818	444.92673028149	0.294060301039
2	2823	446.371498792021	0.294060301039
2	2828	446.693510382615	0.294060301039
2	2833	447.330829734878	0.294060301039
2	2838	449.898041220355	0.294060301039
2	2845	450.344930730742	0.294060301039
2	2856	450.638991031781	0.543832029533
2	2861	450.93305133282	0.568551654648
2	2864	451.227111633859	0.837642597856
2	2867	451.521171934898	1.092872803679
2	2870	451.815232235937	1.208211064576
2	2877	452.457196625463	0.294060301039
2	2884	452.971165525051	0.294060301039
2	2887	453.26522582609	0.48358386594
2	2896	455.370211382061	0.294060301039
2	2899	455.6642716831	0.452670057685
2	2902	455.958331984139	0.610562538862
2	2907	457.14496296976	0.294060301039
2	2912	457.799074960022	0.294060301039
2	2917	460.241280260674	0.294060301039
2	2922	461.722166191159	0.294060301039
2	2929	462.348081089212	0.294060301039
2	2932	462.642141390251	0.353882094309
2	2937	463.017469010046	0.294060301039
2	2942	463.535533115522	0.294060301039
2	2947	464.80196115548	0.294060301039
2	2952	466.102800355162	0.294060301039
2	2957	467.448133388375	0.294060301039
2	2962	468.837268784894	0.294060301039
2	2969	469.615073260847	0.294060301039
2	2972	469.909133561886	0.354114285851
2	2981	470.763781745493	0.294060301039
2	2986	471.057842046532	0.530371394669
2	2989	471.351902347571	0.755832391488
2	2992	471.64596264861	0.778833016414
2	2997	472.132778656267	0.294060301039
2	3002	473.137460746034	0.294060301039
2	3007	473.917122027237	0.294060301039
2	3012	475.525797214694	0.294060301039
2	3017	477.067219026676	0.294060301039
2	3022	478.120277119412	0.294060301039
2	3030	479.515914330218	0.294060301039
2	3033	479.809974631257	0.567595841443
2	3040	480.283262305305	0.294060301039
2	3043	480.577322606344	0.50723440588
2	3048	481.052493473174	0.294060301039
2	3053	481.875471411173	0.294060301039
2	3058	484.035565398195	0.294060301039
2	3063	485.284502242697	0.294060301039
2	3068	485.731214101209	0.294060301039
2	3075	488.853484495751	0.294060301039
2	3082	489.14754479679	0.479977173579
2	3085	489.441605097829	0.532874663597
2	3088	489.735665398868	0.781498755375
2	3093	490.30216125067	0.294060301039
2	3098	491.745140266514	0.294060301039
2	3103	492.654780266043	0.294060301039
2	3108	493.85204015792	0.294060301039
2	3115	494.482238886493	0.294060301039
2	3120	494.776299187532	0.342739878999
2	3125	495.070359488571	0.492450986931
2	3128	495.36441978961	0.428542446755
2	3133	497.441496079578	0.294060301039
2	3140	500.062181985389	0.294060301039
2	3143	500.356242286428	0.360535752887
2	3148	501.168722094138	0.294060301039
2	3155	503.247056648178	0.294060301039
2	3160	503.541116949217	0.411482858528
2	3163	503.835177250256	0.392049175679
2	3168	505.959455287519	0.294060301039
2	3173	507.254518801319	0.294060301039
2	3179	507.84993357599	0.294060301039
2	3184	508.494278779528	0.294060301039
2	3189	510.167454282853	0.294060301039
2	3194	511.473744698261	0.294060301039
2	3199	512.086401361048	0.294060301039
2	3204	513.024044879417	0.294060301039
2	3209	514.982241244809	0.294060301039
2	3214	515.753340909683	0.294060301039
2	3223	516.211018653412	0.294060301039
2	3226	516.505078954451	0.587258842956
2	3229	516.79913925549	0.771987821946
2	3234	517.434317073522	0.294060301039
2	3241	518.457723627037	0.294060301039
2	3244	518.751783928076	0.299736458184
2	3249	520.8789316292	0.294060301039
2	3254	521.494240921868	0.294060301039
2	3259	523.919280914219	0.294060301039
2	3266	524.713791668743	0.294060301039
2	3269	525.007851969782	0.510417429487
2	3274	525.587856606394	0.294060301039
2	3279	526.524866759624	0.294060301039
2	3284	527.012698743799	0.294060301039
2	3289	528.043813551991	0.294060301039
2	3294	529.441781437687	0.294060301039
2	3303	530.142045412718	0.294060301039
2	3306	530.436105713757	0.538772808846
2	3309	530.730166014796	0.645337958856
2	3314	534.796646426927	0.294060301039
2	3323	535.767584929501	0.294060301039
2	3328	536.06164523054	0.364873792752
2	3332	536.561520229964	0.801713797887
2	3335	536.855580531003	1.055495322297
2	3342	537.76809832232	0.294060301039
2	3347	538.062158623359	0.479668579602
2	3350	538.356218924398	0.383395322939
2	3355	539.624253648813	0.294060301039
2	3360	540.899161090379	0.294060301039
2	3365	541.295641077583	0.294060301039
2	3370	543.893780094786	0.294060301039
2	3375	544.885528945657	0.294060301039
2	3380	545.485161455983	0.294060301039
2	3385	547.673603737077	0.294060301039
2	3390	547.973762650732	0.294060301039
2	3395	548.383621023388	0.294060301039
2	3402	548.805537255151	0.294060301039
2	3407	549.09959755619	0.300125483171
2	3410	549.393657857229	0.429174800656
2	3415	550.153589771509	0.294060301039
2	3422	550.733640095397	0.294060301039
2	3427	551.027700396436	0.509188156702
2	3430	551.321760697475	0.574853480765
2	3435	553.400318423024	0.294060301039
2	3444	554.551367287757	0.294060301039
2	3449	554.845427588796	0.539055932675
2	3454	555.139487889835	0.734595445461
2	3457	555.433548190874	0.822757861157
2	3460	555.727608491913	0.848451412736
2	3465	556.15048013156	0.294060301039
2	3470	558.351543708825	0.294060301039
2	3475	559.20898660988	0.294060301039
2	3481	562.356476514736	0.294060301039
2	3488	563.573144933301	0.294060301039
2	3491	563.86720523434	0.385130671199
2	3498	564.206315553836	0.294060301039
2	3501	564.500375854875	0.298996938166
2	3506	564.88704849546	0.294060301039
2	3511	565.367973926362	0.294060301039
2	3518	566.18414323728	0.294060301039
2	3521	566.478203538319	0.304566963612
2	3526	567.028108280784	0.294060301039
2	3531	567.389392893117	0.294060301039
2	3540	567.754963473828	0.294060301039
2	3545	568.049023774867	0.568969577342
2	3548	568.343084075906	0.589037496321
2	3551	568.637144376945	0.879748857654
2	3556	569.218029389024	0.294060301039
2	3563	570.507914429108	0.294060301039
2	3566	570.801974730147	0.431634380878
2	3573	571.522786864176	0.294060301039
2	3576	571.816847165215	0.554083986576
2	3583	574.34565059244	0.294060301039
2	3586	574.639710893479	0.461402342549
2	3591	577.199009215494	0.294060301039
2	3596	577.631743803642	0.294060301039
2	3601	579.210784977475	0.294060301039
2	3606	582.548568088812	0.294060301039
2	3611	583.036463078518	0.294060301039
2	3616	583.429214220842	0.294060301039
2	3621	585.560847300911	0.294060301039
2	3628	586.13614327126	0.294060301039
2	3632	586.636018270684	0.5236955184
2	3637	588.931124410771	0.294060301039
2	3642	589.591615651249	0.294060301039
2	3647	590.30867108062	0.294060301039
2	3652	592.053584836182	0.294060301039
2	3657	592.658021923319	0.294060301039
2	3662	592.967886985509	0.294060301039
2	3669	593.369862439398	0.294060301039
2	3672	593.663922740437	0.302370754307
2	3679	594.8816603478	0.294060301039
2	3682	595.175720648839	0.560280334069
2	3691	596.0025288248	0.294060301039
2	3696	596.296589125839	0.559802807628
2	3699	596.590649426878	0.67596230275
2	3702	596.884709727917	0.775701811788
2	3709	598.977215366379	0.294060301039
2	3712	599.271275667418	0.312106638725
2	3719	600.853464912496	0.294060301039
2	3722	601.147525213535	0.573392581067
2	3729	602.33211094539	0.294060301039
2	3732	602.626171246429	0.325345900415
2	3737	603.733449460588	0.294060301039
2	3742	604.545802245684	0.294060301039
2	3747	605.644651389911	0.294060301039
2	3754	606.045198182876	0.294060301039
2	3757	606.339258483915	0.368003095657
2	3762	607.643005154106	0.294060301039
2	3767	608.199109941693	0.294060301039
2	3774	608.758302425683	0.294060301039
2	3779	609.052362726722	0.312188240891
2	3785	609.552237726146	0.561515050623
2	3788	609.846298027185	0.772108579293
2	3795	610.873127135777	0.294060301039
2	3798	611.167187436816	0.370212603112
2	3803	612.948480749864	0.294060301039
2	3808	614.527918837479	0.294060301039
2	3813	615.612281019768	0.294060301039
2	3818	616.568063657939	0.294060301039
2	3825	617.245864230836	0.294060301039
2	3828	617.539924531875	0.541703983742
2	3833	618.807567899248	0.294060301039
2	3840	622.13787522083	0.294060301039
2	3847	622.431935521869	0.509467264389
2	3850	622.725995822908	0.533298629307
2	3855	623.020056123947	0.767942538167
2	3858	623.314116424986	0.552381957553
2	3865	624.158935762845	0.294060301039
2	3870	624.452996063884	0.584236365636
2	3873	624.747056364923	0.301641836601
2	3880	625.116153940274	0.294060301039
2	3885	625.410214241313	0.380054280522
2	3888	625.704274542352	0.366514624516
2	3893	626.585365451043	0.294060301039
2	3898	627.472521461154	0.294060301039
2	3903	628.34013008535	0.294060301039
2	3908	632.941325067674	0.294060301039
2	3915	635.511557427754	0.294060301039
2	3920	635.805617728793	0.448452146134
2	3923	636.099678029832	0.531996677188
2	3930	636.527823893225	0.294060301039
2	3934	637.027698892649	0.544526020696
2	3939	638.19250526779	0.294060301039
2	3944	638.89882612088	0.294060301039
2	3951	639.235377469038	0.294060301039
2	3954	639.529437770077	0.306175969531
2	3961	640.861692906755	0.294060301039
2	3964	641.155753207794	0.300189320308
2	3969	643.108924045169	0.294060301039
2	3974	643.559629710541	0.294060301039
2	3979	643.960814902788	0.294060301039
2	3986	644.623723049657	0.294060301039
2	3989	644.917783350696	0.365060402181
2	3996	648.133648615909	0.294060301039
2	3999	648.427708916948	0.566566749827
2	4004	651.004404002187	0.294060301039
2	4009	651.603708397905	0.294060301039
2	4014	652.788830143657	0.294060301039
2	4019	653.120056631501	0.294060301039
2	4024	653.445922495204	0.294060301039
2	4029	654.812445145261	0.294060301039
2	4034	655.255142788513	0.294060301039
2	4039	656.730096966736	0.294060301039
2	4044	657.301022805816	0.294060301039
2	4051	659.633161840273	0.294060301039
2	4054	659.927222141312	0.341893326248
2	4061	660.457248371223	0.294060301039
2	4064	660.751308672262	0.447134205599
2	4069	661.280245322429	0.294060301039
2	4076	661.81358794058	0.294060301039
2	4081	662.107648241619	0.367995216498
2	4085	662.607523241043	0.555578635959
2	4090	664.148140124929	0.294060301039
2	4095	665.338918036502	0.294060301039
2	4100	665.900892642162	0.294060301039
2	4107	666.202784749217	0.294060301039
2	4110	666.496845050256	0.30541229347
2	4117	667.506952705744	0.294060301039
2	4120	667.801013006783	0.29953168896
2	4127	669.390574192068	0.294060301039
2	4130	669.684634493107	0.427463799948
2	4135	669.990552961865	0.294060301039
2	4140	670.471342741759	0.294060301039
2	4145	672.124448196548	0.294060301039
2	4150	674.115793630184	0.294060301039
2	4157	674.625571853418	0.294060301039
2	4160	674.919632154457	0.485362196902
2	4165	675.683503163313	0.294060301039
2	4170	678.644693982344	0.294060301039
2	4175	680.714693519622	0.294060301039
2	4186	681.93096689898	0.294060301039
2	4193	682.225027200019	0.54055814639
2	4198	682.519087501058	0.829632135386
2	4201	682.813147802097	0.982165371649
2	4204	683.107208103136	1.06292107859
2	4207	683.401268404175	1.246849879096
2	4210	683.695328705214	1.198382158693
2	4215	684.815591957937	0.294060301039
2	4220	686.887021710477	0.294060301039
2	4225	687.984313998303	0.294060301039
2	4232	689.077675832429	0.294060301039
2	4236	689.577550831853	0.708413017717
2	4243	689.886280209738	0.294060301039
2	4252	690.180340510777	0.433338278908
2	4259	690.474400811816	0.583446526927
2	4262	690.768461112855	0.852119936272
2	4265	691.062521413894	1.007674114028
2	4268	691.356581714933	1.147253241444
2	4273	691.650642015972	1.199216276197
2	4280	691.944702317011	0.375335135168
2	4283	692.23876261805	0.542752839884
2	4286	692.532822919089	0.711328241662
2	4291	693.318828318552	0.294060301039
2	4296	694.775877679469	0.294060301039
2	4301	696.687470626943	0.294060301039
2	4308	697.657107417878	0.294060301039
2	4313	697.951167718917	0.535530277449
2	4316	698.245228019956	0.509881814248
2	4321	701.075742635189	0.294060301039
2	4326	701.88446599287	0.294060301039
2	4331	702.476062818114	0.294060301039
2	4336	703.94889285132	0.294060301039
2	4343	704.562271205301	0.294060301039
2	4350	704.85633150634	0.311748678057
2	4353	705.150391807379	0.500001082458
2	4356	705.444452108418	0.592260500845
2	4361	706.532675158657	0.294060301039
2	4366	707.21230567321	0.294060301039
2	4371	708.739129886333	0.294060301039
2	4376	709.352719702179	0.294060301039
2	4381	711.978071361524	0.294060301039
2	4387	713.430745563735	0.294060301039
2	4392	715.071090102698	0.294060301039
2	4399	716.109189965401	0.294060301039
2	4402	716.40325026644	0.524973551976
2	4407	716.738828055936	0.294060301039
2	4414	718.221307804984	0.294060301039
2	4417	718.515368106023	0.435594950088
2	4422	719.462228221167	0.294060301039
2	4427	719.94619321295	0.294060301039
2	4432	720.706210299114	0.294060301039
2	4437	721.637680603111	0.294060301039
2	4444	723.419563850248	0.294060301039
2	4447	723.713624151287	0.388097829263
2	4452	724.21328259118	0.294060301039
2	4457	725.468556628871	0.294060301039
2	4466	726.294295054227	0.294060301039
2	4469	726.588355355266	0.450685898776
2	4474	726.882415656305	0.709467149246
2	4477	727.176475957344	0.492551463475
2	4484	727.521019450106	0.294060301039
2	4489	727.815079751145	0.471525619092
2	4492	728.109140052184	0.448114584411
2	4497	729.584647809763	0.294060301039
2	4502	729.966161135516	0.294060301039
2	4509	730.272204731163	0.294060301039
2	4512	730.566265032202	0.506529828833
2	4517	732.345710943313	0.294060301039
2	4522	733.644132286057	0.294060301039
2	4529	734.679406019317	0.294060301039
2	4532	734.973466320356	0.399506636807
2	4538	735.969192593674	0.294060301039
2	4543	736.381357226513	0.294060301039
2	4550	737.204860971212	0.294060301039
2	4553	737.498921272251	0.542360312618
2	4558	738.564457108224	0.294060301039
2	4563	740.5585513912	0.294060301039
2	4570	741.623191797548	0.294060301039
2	4573	741.917252098587	0.41458878148
2	4580	743.327660571695	0.294060301039
2	4585	743.621720872734	0.360149337168
2	4590	743.915781173773	0.48538945851
2	4593	744.209841474812	0.348135142835
2	4600	744.574067045027	0.294060301039
2	4603	744.868127346066	0.351630474232
2	4608	745.22425190419	0.294060301039
2	4613	746.387991403121	0.294060301039
2	4618	747.1263072438	0.294060301039
2	4623	747.937869408196	0.294060301039
2	4628	749.029037754811	0.294060301039
2	4633	749.576498926086	0.294060301039
2	4640	751.354684754149	0.294060301039
2	4643	751.648745055188	0.523044284258
2	4650	752.924111750888	0.294060301039
2	4653	753.218172051927	0.322882645147
2	4658	753.666895098683	0.294060301039
2	4663	755.346113866936	0.294060301039
2	4670	755.902306793368	0.294060301039
2	4675	756.196367094407	0.371031876517
2	4678	756.490427395446	0.313895259815
2	4683	758.014604318641	0.294060301039
2	4691	758.514479318065	0.397361916074
2	4694	758.808539619104	0.348060156374
2	4701	759.138593164977	0.294060301039
2	4704	759.432653466016	0.547175782641
2	4711	761.144139830536	0.294060301039
2	4714	761.438200131575	0.331922662828
2	4719	762.606045203907	0.294060301039
2	4724	764.697494974993	0.294060301039
2	4731	765.320481528876	0.294060301039
2	4734	765.614541829915	0.566211491422
2	4743	766.008507783709	0.294060301039
2	4748	766.302568084748	0.542570191746
2	4751	766.596628385787	0.724046665891
2	4756	766.890688686826	0.853051278391
2	4761	767.184748987865	0.33755032848
2	4764	767.478809288904	0.534506952509
2	4769	768.639045674293	0.294060301039
2	4774	769.361471010832	0.294060301039
2	4779	770.469793726432	0.294060301039
2	4786	770.910170591591	0.294060301039
2	4789	771.20423089263	0.583009809647
2	4794	774.007845040488	0.294060301039
2	4799	776.271348376438	0.294060301039
2	4804	776.959682937587	0.294060301039
2	4809	778.999220232407	0.294060301039
2	4814	779.952973235732	0.294060301039
2	4821	782.400653946692	0.294060301039
2	4824	782.694714247731	0.369121051926
2	4829	783.04874592354	0.294060301039
2	4836	784.352528838215	0.294060301039
2	4842	784.852403837639	0.667510686535
2	4845	785.146464138678	0.379160967249
2	4850	787.747096801974	0.294060301039
2	4855	788.50366254945	0.294060301039
2	4860	789.357797524401	0.294060301039
2	4865	790.924536206886	0.294060301039
2	4870	791.819693565479	0.294060301039
2	4877	792.120117113552	0.294060301039
2	4880	792.414177414591	0.317639831317
2	4889	794.739359068834	0.294060301039
2	4894	795.033419369873	0.544492932691
2	4899	795.327479670912	0.677725170349
2	4902	795.621539971951	0.756345529888
2	4905	795.91560027299	0.594684968794
2	4910	797.371335882355	0.294060301039
2	4917	798.549503468599	0.294060301039
2	4920	798.843563769638	0.570031835365
2	4925	800.188963262525	0.294060301039
2	4930	801.308740501599	0.294060301039
2	4937	802.932147211359	0.294060301039
2	4940	803.226207512398	0.302852493841
2	4947	804.128225645189	0.294060301039
2	4954	804.422285946228	0.383627587708
2	4959	804.716346247267	0.586820196564
2	4962	805.010406548306	0.851631449729
[...]
8	2234	357.852996963644	0
8	2239	358.275297497625	0
8	2244	358.571600755289	0
8	2249	359.403139793189	0
8	2254	359.988862794536	0
8	2259	361.511868859968	0
8	2264	362.324531796791	0
8	2272	363.221067115018	0
8	2275	363.515127416057	0
8	2282	363.968713204596	0
8	2285	364.262773505635	0
8	2290	364.642609898538	0
8	2297	366.513924846225	0
8	2302	366.807985147264	0
8	2305	367.102045448303	0
8	2310	367.480780321531	0
8	2315	367.841022412641	0
8	2320	369.845406068467	0
8	2325	371.449716271748	0
8	2332	372.651297888147	0
8	2337	372.945358189186	0
8	2340	373.239418490225	0
8	2345	375.348673937469	0
8	2350	377.308484373806	0
8	2355	378.622521101764	0
8	2360	378.925084940419	0
8	2365	380.114784680647	0
8	2372	381.511665504577	0
8	2375	381.805725805616	0
8	2384	383.851603688132	0
8	2387	384.145663989171	0
8	2390	384.43972429021	0
8	2397	384.94882671928	0
8	2400	385.242887020319	0
8	2405	386.21571383415	0
8	2410	387.42360732084	0
8	2415	387.826407225312	0
8	2421	388.558011875808	0
8	2426	389.233448302906	0
8	2431	390.108529799398	0
8	2436	390.928811117253	0
8	2441	391.233540015158	0
8	2446	392.506294922298	0
8	2453	393.783800316163	0
8	2458	394.077860617202	0
8	2461	394.371920918241	0
8	2466	395.299500186126	0
8	2473	396.389961684551	0
8	2476	396.68402198559	0
8	2481	397.017385336393	0
8	2486	397.684850274131	0
8	2491	397.988834524317	0
8	2498	400.311832795658	0
8	2505	400.605893096697	0
8	2508	400.899953397736	0
8	2513	401.194013698775	0
8	2518	401.488073999814	0
8	2521	401.782134300853	0
8	2530	402.424376328725	0
8	2533	402.718436629764	0
8	2536	403.012496930803	0
8	2541	403.783544576656	0
8	2546	405.358821207813	0
8	2551	406.690750997871	0
8	2556	407.172106470572	0
8	2563	407.914471383122	0
8	2570	408.208531684161	0
8	2574	408.708406683585	0
8	2577	409.002466984624	0
8	2582	412.433562794724	0
8	2587	413.244638523431	0
8	2592	413.671101699869	0
8	2597	414.42719435107	0
8	2602	414.92844820656	0
8	2609	415.41888525265	0
8	2612	415.712945553689	0
8	2619	417.137404663944	0
8	2624	417.431464964983	0
8	2627	417.725525266022	0
8	2632	419.12242366763	0
8	2637	419.624168700507	0
8	2642	421.451515165196	0
8	2647	421.800720929433	0
8	2652	422.78804086481	0
8	2657	423.345426972404	0
8	2662	424.248952860249	0
8	2667	424.545564953364	0
8	2672	425.765387422924	0
8	2677	426.541840080375	0
8	2682	427.515906699359	0
8	2687	428.178349227901	0
8	2692	428.856739604982	0
8	2697	429.178206163439	0
8	2702	430.880377520559	0
8	2711	431.36704792609	0
8	2714	431.661108227129	0
8	2719	431.955168528168	0
8	2727	432.455043527592	0
8	2732	432.749103828631	0
8	2735	433.04316412967	0
8	2740	433.337224430709	0
8	2745	433.631284731748	0
8	2748	433.925345032787	0
8	2753	434.86189849655	0
8	2758	435.317721083232	0
8	2765	435.750667107711	0
8	2770	436.04472740875	0
8	2775	436.338787709789	0
8	2778	436.632848010828	0
8	2783	437.055888706825	0
8	2788	438.643507181842	0
8	2797	439.389925906286	0
8	2800	439.683986207325	0
8	2803	439.978046508364	0
8	2808	442.606638925934	0
8	2813	443.674402726105	0
8	2818	444.92673028149	0
8	2823	446.371498792021	0
8	2828	446.693510382615	0
8	2833	447.330829734878	0
8	2838	449.898041220355	0
8	2845	450.344930730742	0
8	2856	450.638991031781	0
8	2861	450.93305133282	0
8	2864	451.227111633859	0
8	2867	451.521171934898	0
8	2870	451.815232235937	0
8	2877	452.457196625463	0
8	2884	452.971165525051	0
8	2887	453.26522582609	0
8	2896	455.370211382061	0
8	2899	455.6642716831	0
8	2902	455.958331984139	0
8	2907	457.14496296976	0
8	2912	457.799074960022	0
8	2917	460.241280260674	0
8	2922	461.722166191159	0
8	2929	462.348081089212	0
8	2932	462.642141390251	0
8	2937	463.017469010046	0
8	2942	463.535533115522	0
8	2947	464.80196115548	0
8	2952	466.102800355162	0
8	2957	467.448133388375	0
8	2962	468.837268784894	0
8	2969	469.615073260847	0
8	2972	469.909133561886	0
8	2981	470.763781745493	0
8	2986	471.057842046532	0
8	2989	471.351902347571	0
8	2992	471.64596264861	0
8	2997	472.132778656267	0
8	3002	473.137460746034	0
8	3007	473.917122027237	0
8	3012	475.525797214694	0
8	3017	477.067219026676	0
8	3022	478.120277119412	0
8	3030	479.515914330218	0
8	3033	479.809974631257	0
8	3040	480.283262305305	0
8	3043	480.577322606344	0
8	3048	481.052493473174	0
8	3053	481.875471411173	0
8	3058	484.035565398195	0
8	3063	485.284502242697	0
8	3068	485.731214101209	0
8	3075	488.853484495751	0
8	3082	489.14754479679	0
8	3085	489.441605097829	0
8	3088	489.735665398868	0
8	3093	490.30216125067	0
8	3098	491.745140266514	0
8	3103	492.654780266043	0
8	3108	493.85204015792	0
8	3115	494.482238886493	0
8	3120	494.776299187532	0
8	3125	495.070359488571	0
8	3128	495.36441978961	0
8	3133	497.441496079578	0
8	3140	500.062181985389	0
8	3143	500.356242286428	0
8	3148	501.168722094138	0
8	3155	503.247056648178	0
8	3160	503.541116949217	0
8	3163	503.835177250256	0
8	3168	505.959455287519	0
8	3173	507.254518801319	0
8	3179	507.84993357599	0
8	3184	508.494278779528	0
8	3189	510.167454282853	0
8	3194	511.473744698261	0
8	3199	512.086401361048	0
8	3204	513.024044879417	0
8	3209	514.982241244809	0
8	3214	515.753340909683	0
8	3223	516.211018653412	0
8	3226	516.505078954451	0
8	3229	516.79913925549	0
8	3234	517.434317073522	0
8	3241	518.457723627037	0
8	3244	518.751783928076	0
8	3249	520.8789316292	0
8	3254	521.494240921868	0
8	3259	523.919280914219	0
8	3266	524.713791668743	0
8	3269	525.007851969782	0
8	3274	525.587856606394	0
8	3279	526.524866759624	0
8	3284	527.012698743799	0
8	3289	528.043813551991	0
8	3294	529.441781437687	0
8	3303	530.142045412718	0
8	3306	530.436105713757	0
8	3309	530.730166014796	0
8	3314	534.796646426927	0
8	3323	535.767584929501	0
8	3328	536.06164523054	0
8	3332	536.561520229964	0
8	3335	536.855580531003	0
8	3342	537.76809832232	0
8	3347	538.062158623359	0
8	3350	538.356218924398	0
8	3355	539.624253648813	0
8	3360	540.899161090379	0
8	3365	541.295641077583	0
8	3370	543.893780094786	0
8	3375	544.885528945657	0
8	3380	545.485161455983	0
8	3385	547.673603737077	0
8	3390	547.973762650732	0
8	3395	548.383621023388	0
8	3402	548.805537255151	0
8	3407	549.09959755619	0
8	3410	549.393657857229	0
8	3415	550.153589771509	0
8	3422	550.733640095397	0
8	3427	551.027700396436	0
8	3430	551.321760697475	0
8	3435	553.400318423024	0
8	3444	554.551367287757	0
8	3449	554.845427588796	0
8	3454	555.139487889835	0
8	3457	555.433548190874	0
8	3460	555.727608491913	0
8	3465	556.15048013156	0
8	3470	558.351543708825	0
8	3475	559.20898660988	0
8	3481	562.356476514736	0
8	3488	563.573144933301	0
8	3491	563.86720523434	0
8	3498	564.206315553836	0
8	3501	564.500375854875	0
8	3506	564.88704849546	0
8	3511	565.367973926362	0
8	3518	566.18414323728	0
8	3521	566.478203538319	0
8	3526	567.028108280784	0
8	3531	567.389392893117	0
8	3540	567.754963473828	0
8	3545	568.049023774867	0
8	3548	568.343084075906	0
8	3551	568.637144376945	0
8	3556	569.218029389024	0
8	3563	570.507914429108	0
8	3566	570.801974730147	0
8	3573	571.522786864176	0
8	3576	571.816847165215	0
8	3583	574.34565059244	0
8	3586	574.639710893479	0
8	3591	577.199009215494	0
8	3596	577.631743803642	0
8	3601	579.210784977475	0
8	3606	582.548568088812	0
8	3611	583.036463078518	0
8	3616	583.429214220842	0
8	3621	585.560847300911	0
8	3628	586.13614327126	0
8	3632	586.636018270684	0
8	3637	588.931124410771	0
8	3642	589.591615651249	0
8	3647	590.30867108062	0
8	3652	592.053584836182	0
8	3657	592.658021923319	0
8	3662	592.967886985509	0
8	3669	593.369862439398	0
8	3672	593.663922740437	0
8	3679	594.8816603478	0
8	3682	595.175720648839	0
8	3691	596.0025288248	0
8	3696	596.296589125839	0
8	3699	596.590649426878	0
8	3702	596.884709727917	0
8	3709	598.977215366379	0
8	3712	599.271275667418	0
8	3719	600.853464912496	0
8	3722	601.147525213535	0
8	3729	602.33211094539	0
8	3732	602.626171246429	0
8	3737	603.733449460588	0
8	3742	604.545802245684	0
8	3747	605.644651389911	0
8	3754	606.045198182876	0
8	3757	606.339258483915	0
8	3762	607.643005154106	0
8	3767	608.199109941693	0
8	3774	608.758302425683	0
8	3779	609.052362726722	0
8	3785	609.552237726146	0
8	3788	609.846298027185	0
8	3795	610.873127135777	0
8	3798	611.167187436816	0
8	3803	612.948480749864	0
8	3808	614.527918837479	0
8	3813	615.612281019768	0
8	3818	616.568063657939	0
8	3825	617.245864230836	0
8	3828	617.539924531875	0
8	3833	618.807567899248	0
8	3840	622.13787522083	0
8	3847	622.431935521869	0
8	3850	622.725995822908	0
8	3855	623.020056123947	0
8	3858	623.314116424986	0
8	3865	624.158935762845	0
8	3870	624.452996063884	0
8	3873	624.747056364923	0
8	3880	625.116153940274	0
8	3885	625.410214241313	0
8	3888	625.704274542352	0
8	3893	626.585365451043	0
8	3898	627.472521461154	0
8	3903	628.34013008535	0
8	3908	632.941325067674	0
8	3915	635.511557427754	0
8	3920	635.805617728793	0
8	3923	636.099678029832	0
8	3930	636.527823893225	0
8	3934	637.027698892649	0
8	3939	638.19250526779	0
8	3944	638.89882612088	0
8	3951	639.235377469038	0
8	3954	639.529437770077	0
8	3961	640.861692906755	0
8	3964	641.155753207794	0
8	3969	643.108924045169	0
8	3974	643.559629710541	0
8	3979	643.960814902788	0
8	3986	644.623723049657	0
8	3989	644.917783350696	0
8	3996	648.133648615909	0
8	3999	648.427708916948	0
8	4004	651.004404002187	0
8	4009	651.603708397905	0
8	4014	652.788830143657	0
8	4019	653.120056631501	0
8	4024	653.445922495204	0
8	4029	654.812445145261	0
8	4034	655.255142788513	0
8	4039	656.730096966736	0
8	4044	657.301022805816	0
8	4051	659.633161840273	0
8	4054	659.927222141312	0
8	4061	660.457248371223	0
8	4064	660.751308672262	0
8	4069	661.280245322429	0
8	4076	661.81358794058	0
8	4081	662.107648241619	0
8	4085	662.607523241043	0
8	4090	664.148140124929	0
8	4095	665.338918036502	0
8	4100	665.900892642162	0
8	4107	666.202784749217	0
8	4110	666.496845050256	0
8	4117	667.506952705744	0
8	4120	667.801013006783	0
8	4127	669.390574192068	0
8	4130	669.684634493107	0
8	4135	669.990552961865	0
8	4140	670.471342741759	0
8	4145	672.124448196548	0
8	4150	674.115793630184	0
8	4157	674.625571853418	0
8	4160	674.919632154457	0
8	4165	675.683503163313	0
8	4170	678.644693982344	0
8	4175	680.714693519622	0
8	4186	681.93096689898	0
8	4193	682.225027200019	0
8	4198	682.519087501058	0
8	4201	682.813147802097	0
8	4204	683.107208103136	0
8	4207	683.401268404175	0
8	4210	683.695328705214	0
8	4215	684.815591957937	0
8	4220	686.887021710477	0
8	4225	687.984313998303	0
8	4232	689.077675832429	0
8	4236	689.577550831853	0
8	4243	689.886280209738	0
8	4252	690.180340510777	0
8	4259	690.474400811816	0
8	4262	690.768461112855	0
8	4265	691.062521413894	0
8	4268	691.356581714933	0
8	4273	691.650642015972	0
8	4280	691.944702317011	0
8	4283	692.23876261805	0
8	4286	692.532822919089	0
8	4291	693.318828318552	0
8	4296	694.775877679469	0
8	4301	696.687470626943	0
8	4308	697.657107417878	0
8	4313	697.951167718917	0
8	4316	698.245228019956	0
8	4321	701.075742635189	0
8	4326	701.88446599287	0
8	4331	702.476062818114	0
8	4336	703.94889285132	0
8	4343	704.562271205301	0
8	4350	704.85633150634	0
8	4353	705.150391807379	0
8	4356	705.444452108418	0
8	4361	706.532675158657	0
8	4366	707.21230567321	0
8	4371	708.739129886333	0
8	4376	709.352719702179	0
8	4381	711.978071361524	0
8	4387	713.430745563735	0
8	4392	715.071090102698	0
8	4399	716.109189965401	0
8	4402	716.40325026644	0
8	4407	716.738828055936	0
8	4414	718.221307804984	0
8	4417	718.515368106023	0
8	4422	719.462228221167	0
8	4427	719.94619321295	0
8	4432	720.706210299114	0
8	4437	721.637680603111	0
8	4444	723.419563850248	0
8	4447	723.713624151287	0
8	4452	724.21328259118	0
8	4457	725.468556628871	0
8	4466	726.294295054227	0
8	4469	726.588355355266	0
8	4474	726.882415656305	0
8	4477	727.176475957344	0
8	4484	727.521019450106	0
8	4489	727.815079751145	0
8	4492	728.109140052184	0
8	4497	729.584647809763	0
8	4502	729.966161135516	0
8	4509	730.272204731163	0
8	4512	730.566265032202	0
8	4517	732.345710943313	0
8	4522	733.644132286057	0
8	4529	734.679406019317	0
8	4532	734.973466320356	0
8	4538	735.969192593674	0
8	4543	736.381357226513	0
8	4550	737.204860971212	0
8	4553	737.498921272251	0
8	4558	738.564457108224	0
8	4563	740.5585513912	0
8	4570	741.623191797548	0
8	4573	741.917252098587	0
8	4580	743.327660571695	0
8	4585	743.621720872734	0
8	4590	743.915781173773	0
8	4593	744.209841474812	0
8	4600	744.574067045027	0
8	4603	744.868127346066	0
8	4608	745.22425190419	0
8	4613	746.387991403121	0
8	4618	747.1263072438	0
8	4623	747.937869408196	0
8	4628	749.029037754811	0
8	4633	749.576498926086	0
8	4640	751.354684754149	0
8	4643	751.648745055188	0
8	4650	752.924111750888	0
8	4653	753.218172051927	0
8	4658	753.666895098683	0
8	4663	755.346113866936	0
8	4670	755.902306793368	0
8	4675	756.196367094407	0
8	4678	756.490427395446	0
8	4683	758.014604318641	0
8	4691	758.514479318065	0
8	4694	758.808539619104	0
8	4701	759.138593164977	0
8	4704	759.432653466016	0
8	4711	761.144139830536	0
8	4714	761.438200131575	0
8	4719	762.606045203907	0
8	4724	764.697494974993	0
8	4731	765.320481528876	0
8	4734	765.614541829915	0
8	4743	766.008507783709	0
8	4748	766.302568084748	0
8	4751	766.596628385787	0
8	4756	766.890688686826	0
8	4761	767.184748987865	0
8	4764	767.478809288904	0
8	4769	768.639045674293	0
8	4774	769.361471010832	0
8	4779	770.469793726432	0
8	4786	770.910170591591	0
8	4789	771.20423089263	0
8	4794	774.007845040488	0
8	4799	776.271348376438	0
8	4804	776.959682937587	0
8	4809	778.999220232407	0
8	4814	779.952973235732	0
8	4821	782.400653946692	0
8	4824	782.694714247731	0
8	4829	783.04874592354	0
8	4836	784.352528838215	0
8	4842	784.852403837639	0
8	4845	785.146464138678	0
8	4850	787.747096801974	0
8	4855	788.50366254945	0
8	4860	789.357797524401	0
8	4865	790.924536206886	0
8	4870	791.819693565479	0
8	4877	792.120117113552	0
8	4880	792.414177414591	0
8	4889	794.739359068834	0
8	4894	795.033419369873	0
8	4899	795.327479670912	0
8	4902	795.621539971951	0
8	4905	795.91560027299	0
8	4910	797.371335882355	0
8	4917	798.549503468599	0
8	4920	798.843563769638	0
8	4925	800.188963262525	0
8	4930	801.308740501599	0
8	4937	802.932147211359	0
8	4940	803.226207512398	0
8	4947	804.128225645189	0
8	4954	804.422285946228	0
8	4959	804.716346247267	0
8	4962	805.010406548306	0
8	4965	805.304466849345	0
8	4970	805.729727489884	0
8	4975	806.783676920664	0
8	4980	807.444300398602	0
8	4985	808.500213137658	0
8	4991	809.009202376455	0
8	4998	815.258806859539	0
8	5001	815.552867160578	0
8	5006	816.361549784135	0
8	5013	817.689610313698	0
8	5016	817.983670614737	0
8	5023	818.876426408016	0
8	5026	819.170486709055	0
8	5031	819.665702807843	0
8	5036	820.280969631227	0
8	5041	820.874789894148	0
8	5048	821.902947920912	0
8	5053	822.197008221951	0
8	5056	822.49106852299	0
8	5061	824.20514281345	0
8	5066	825.535705723058	0
8	5073	826.422774038422	0
8	5078	826.716834339461	0
8	5083	827.0108946405	0
8	5088	827.304954941539	0
8	5095	827.599015242578	0
8	5098	827.893075543617	0
8	5101	828.187135844656	0
8	5106	828.562363998124	0
8	5111	829.268952425805	0
8	5120	830.098618627544	0
8	5125	830.392678928583	0
8	5130	830.686739229622	0
8	5133	830.980799530661	0
8	5138	831.2748598317	0
8	5142	831.774734831124	0
8	5147	833.737461045728	0
8	5152	835.711000108967	0
8	5157	838.436565556387	0
8	5164	838.75617559256	0
8	5167	839.050235893599	0
8	5172	839.553744382892	0
8	5177	841.00249916612	0
8	5182	841.55586208935	0
8	5187	843.484595814037	0
8	5192	844.212900224254	0
8	5197	844.530959108591	0
8	5204	844.859335340577	0
8	5207	845.153395641616	0
8	5212	845.750217621082	0
8	5221	848.21712669738	0
8	5224	848.511186998419	0
8	5227	848.805247299458	0
8	5234	849.753327656996	0
8	5239	850.047387958035	0
8	5244	850.341448259074	0
8	5249	850.635508560113	0
8	5252	850.929568861152	0
8	5257	851.285091063807	0
8	5264	854.322854652879	0
8	5267	854.616914953918	0
8	5272	855.780335728028	0
8	5279	856.485330149386	0
8	5282	856.779390450425	0
8	5287	859.610969803323	0
8	5293	862.019636279607	0
8	5304	862.658761893852	0
8	5307	862.952822194891	0
8	5310	863.24688249593	0
8	5315	863.540942796969	0
8	5318	863.835003098008	0
8	5323	864.170151759027	0
8	5328	865.640790542376	0
8	5333	866.324636204924	0
8	5338	867.013689353014	0
8	5343	870.824783601606	0
8	5352	871.405528081459	0
8	5355	871.699588382498	0
8	5358	871.993648683537	0
8	5363	872.333607286914	0
8	5374	874.907513803369	0
8	5381	875.201574104408	0
8	5386	875.495634405447	0
8	5391	875.789694706486	0
8	5394	876.083755007525	0
8	5399	876.377815308564	0
8	5402	876.671875609603	0
8	5407	876.965935910642	0
8	5412	877.259996211681	0
8	5415	877.55405651272	0
8	5418	877.848116813759	0
8	5427	878.165068809378	0
8	5430	878.459129110417	0
8	5433	878.753189411456	0
8	5440	879.298041911548	0
8	5444	879.797916910972	0
8	5449	880.334474977975	0
8	5454	881.25083263203	0
8	5461	882.198202565258	0
8	5466	882.492262866297	0
8	5469	882.786323167336	0
8	5474	883.333154256525	0
8	5479	883.70461637935	0
8	5484	885.063120318301	0
8	5489	885.651280295043	0
8	5494	890.98476044272	0
8	5499	891.33391471432	0
8	5506	892.311603581542	0
8	5509	892.605663882581	0
8	5514	892.946040442564	0
8	5519	895.149653608238	0
8	5524	895.545714538775	0
8	5529	896.634234397525	0
8	5534	897.092138296194	0
8	5541	897.676278528081	0
8	5546	897.97033882912	0
8	5549	898.264399130159	0
8	5556	899.209386012747	0
8	5561	899.503446313786	0
8	5568	899.797506614825	0
8	5573	900.091566915864	0
8	5576	900.385627216903	0
8	5579	900.679687517942	0
8	5586	904.823711652987	0
8	5591	905.117771954026	0
8	5595	905.61764695345	0
8	5600	906.051484550538	0
8	5605	906.705467947608	0
8	5610	911.52250661897	0
8	5615	912.245163131867	0
8	5620	913.16702307162	0
8	5629	914.421756671502	0
8	5632	914.715816972541	0
8	5635	915.00987727358	0
8	5640	918.662922209825	0
8	5647	920.304317660871	0
8	5652	920.59837796191	0
8	5655	920.892438262949	0
8	5660	921.343471441385	0
8	5665	921.741185429978	0
8	5672	922.158427441479	0
8	5675	922.452487742518	0
8	5680	923.290502704385	0
8	5687	925.733819340087	0
8	5690	926.027879641126	0
8	5695	926.568690274142	0
8	5702	927.057188840055	0
8	5705	927.351249141094	0
8	5710	928.072738268555	0
8	5715	928.873271318395	0
8	5720	931.169869123298	0
8	5725	931.645855357774	0
8	5730	932.334110485472	0
8	5735	933.003270034485	0
8	5742	934.379708078257	0
8	5746	934.879583077681	0
8	5751	936.322033224693	0
8	5758	936.932781195014	0
8	5763	937.226841496053	0
8	5766	937.520901797092	0
8	5771	937.888876428257	0
8	5776	938.917597805018	0
8	5781	939.444664774958	0
8	5786	941.14792021134	0
8	5793	943.814261128732	0
8	5796	944.108321429771	0
8	5805	944.632444819265	0
8	5808	944.926505120304	0
8	5811	945.220565421343	0
8	5816	945.863774462338	0
8	5821	947.778096004771	0
8	5826	950.437321492204	0
8	5831	950.984538491584	0
8	5836	951.967907960042	0
8	5841	955.607492763507	0
8	5846	956.259588503341	0
8	5851	956.947177441724	0
8	5858	957.740471138019	0
8	5863	958.034531439058	0
8	5866	958.328591740097	0
8	5871	958.806827790024	0
8	5878	960.465155553367	0
8	5881	960.759215854406	0
8	5886	963.95338088504	0
8	5891	964.747748922285	0
8	5899	966.960726709451	0
8	5902	967.25478701049	0
8	5909	968.146600818102	0
8	5912	968.440661119141	0
8	5917	969.032893010608	0
8	5922	969.827782902633	0
8	5927	970.173194008901	0
8	5932	970.831364633959	0
8	5937	972.256615561541	0
8	5942	974.088343669895	0
8	5953	975.969882078673	0
8	5956	976.263942379712	0
8	5959	976.558002680751	0
8	5964	976.85206298179	0
8	5969	977.146123282829	0
8	5974	977.440183583868	0
8	5977	977.734243884907	0
8	5982	978.166352048772	0
8	5987	979.035179995055	0
8	5994	979.476388699674	0
8	5999	979.770449000713	0
8	6002	980.064509301752	0
8	6007	981.788742665171	0
8	6012	982.649126814709	0
8	6017	983.337327156036	0
8	6022	985.014990039428	0
8	6027	985.717663937035	0
8	6032	986.855459613934	0
8	6037	987.564314599944	0
8	6042	989.297536036834	0
8	6050	990.681453648856	0
8	6053	990.975513949895	0
8	6058	992.002473107808	0
8	6063	993.512987833531	0
8	6068	994.211763047234	0
8	6073	994.962894052207	0
8	6078	995.526249578027	0
8	6083	996.130723096885	0
8	6090	996.481332238371	0
8	6093	996.77539253941	0
8	6100	997.193235175045	0
8	6105	997.487295476084	0
8	6108	997.781355777123	0
8	6113	998.198690691746	0
8	6118	998.846960115959	0

