version 2
run General-394-20240201-11:04:29-40057
attr configname General
attr datetime 20240201-11:04:29
attr experiment General
attr inifile main.ini
attr iterationvars "$0=1.0, $1=1.7, $2=50"
attr iterationvarsf 1.0,1.7,50-
attr measurement "$0=1.0, $1=1.7, $2=50"
attr network Rete
attr processid 40057
attr repetition 14
attr replication #14
attr resultdir results
attr runnumber 394
attr seedset 394
param Rete.lambda 1.0
param Rete.a 0.3s
param Rete.b 1.7s
param Rete.c 0.1s
param Rete.d 0.3s
param Rete.mu 3.0
param Rete.source2.interArrivalTime exponential(1s/lambda)
param Rete.source2.jobServiceTime exponential(1s/mu)
param Rete.source2.deadline uniform(a,b)
param Rete.server2.j 50
param Rete.server2.V uniform(c,d)

vector 0 Rete.passiveQueue queueLength:vector ETV
attr interpolationmode sample-hold
attr title "queue length, vector"
vector 1 Rete.passiveQueue queueingTime:vector ETV
attr interpolationmode none
attr title "queueing time at dequeue, vector"
attr unit s
vector 2 Rete.sink lifeTime:vector ETV
attr interpolationmode none
attr title "lifetime of arrived jobs, vector"
attr unit s
vector 3 Rete.sink totalQueueingTime:vector ETV
attr interpolationmode none
attr title "the total time spent in queues by arrived jobs, vector"
attr unit s
vector 4 Rete.sink queuesVisited:vector ETV
attr interpolationmode none
attr title "the total number of queues visited by arrived jobs, vector"
vector 5 Rete.sink totalServiceTime:vector ETV
attr interpolationmode none
attr title "the total time spent  by arrived jobs, vector"
attr unit s
vector 6 Rete.sink totalDelayTime:vector ETV
attr interpolationmode none
attr title "the total time spent in delay nodes by arrived jobs, vector"
attr unit s
vector 7 Rete.sink delaysVisited:vector ETV
attr interpolationmode none
attr title "the total number of delays visited by arrived jobs, vector"
vector 8 Rete.sink generation:vector ETV
attr interpolationmode none
attr title "the generation of the arrived jobs, vector"
0	0	0	0
0	5	0.795797202477	1
0	7	0.886008514276	2
0	8	0.964520892925	1
0	11	1.217017551996	0
0	40	8.588518708122	1
0	41	8.81490716525	0
0	95	20.381568320318	1
0	96	20.632121347288	0
0	135	27.391444758109	1
0	136	27.474087261123	0
0	145	27.996318017501	1
0	146	28.102644973683	0
0	150	28.302471292954	1
0	151	28.355141632754	0
0	155	28.526879481439	1
0	156	28.607638291825	0
0	165	29.361289349601	1
0	166	29.570244842182	0
0	205	43.098945645154	1
0	206	43.207356597033	0
0	245	55.562524033978	1
0	246	55.739397236569	0
0	250	55.791035391092	1
0	253	56.179921697051	0
0	286	66.776091783915	1
0	287	66.985493872868	0
0	321	75.124639416283	1
0	322	75.302422338434	0
0	326	75.392984268355	1
0	327	75.554918997505	0
0	341	77.97378742261	1
0	342	78.095889205493	0
0	351	80.506587093523	1
0	352	80.680604641988	0
0	356	80.864838327968	1
0	357	80.933101301059	0
0	386	85.288658113337	1
0	387	85.376114374107	0
0	441	96.561219898334	1
0	442	96.79957303012	0
0	451	99.906721994072	1
0	453	99.952525196548	2
0	454	99.973708970055	1
0	457	100.226205629126	0
0	466	101.656402456703	1
0	467	101.902441221189	0
0	491	108.410096773372	1
0	492	108.482888498869	0
0	512	114.146649971293	1
0	514	114.19738648349	2
0	515	114.384966340678	1
0	518	114.637462999749	0
0	527	115.066276912035	1
0	528	115.251024565492	0
0	532	115.465458569222	1
0	533	115.503521224563	0
0	537	115.747708951876	1
0	538	115.756017883634	0
0	542	115.980730546697	1
0	543	116.008514542705	0
0	572	121.506326178427	1
0	573	121.601434445242	0
0	582	122.236738424874	1
0	584	122.313534865778	2
0	585	122.380455642624	1
0	588	122.632952301695	0
0	622	131.743367337516	1
0	623	131.974273947485	0
0	627	132.195543131045	1
0	628	132.226770606556	0
0	657	137.903510138959	1
0	658	138.084201448708	0
0	672	146.240149673784	1
0	673	146.37319131526	0
0	692	151.857540730761	1
0	694	151.882095338401	2
0	695	151.952642937878	1
0	698	152.205139596949	0
0	727	159.097178622943	1
0	728	159.209304795749	0
0	742	161.551384790554	1
0	743	161.777544935762	0
0	768	169.421661173004	1
0	769	169.566734367842	0
0	803	174.914430735374	1
0	804	175.108875129089	0
0	853	185.043733792006	1
0	854	185.157479573372	0
0	868	187.296531710683	1
0	869	187.423211140355	0
0	878	189.219886441365	1
0	879	189.398260184097	0
0	928	199.72501155831	1
0	929	199.731829743615	0
0	933	199.938606345337	1
0	934	199.984326402686	0
0	948	201.079687740602	1
0	950	201.138562994399	2
0	951	201.153036439444	1
0	955	201.352289437213	2
0	956	201.405533098515	1
0	959	201.658029757586	0
0	963	201.832513984507	1
0	964	201.910526416657	0
0	993	213.707181416167	1
0	994	213.743249465546	0
0	1009	215.576103278681	1
0	1010	215.656401408789	0
0	1014	215.738206187361	1
0	1015	215.90889806786	0
0	1019	216.143573666314	1
0	1020	216.161394726931	0
0	1059	228.139074292112	1
0	1060	228.20657699904	0
0	1099	237.927699402525	1
0	1100	237.976996883292	0
0	1159	249.926605626885	1
0	1160	250.078697430046	0
0	1164	250.297836849101	1
0	1165	250.331194089117	0
0	1214	262.01104233113	1
0	1216	262.039057993257	2
0	1218	262.042305082404	3
0	1219	262.110832642168	2
0	1222	262.363329301239	1
0	1225	262.61582596031	0
0	1242	265.71083534254	1
0	1243	265.804786283849	0
0	1273	271.487985715046	1
0	1274	271.568979075875	0
0	1283	272.079453980792	1
0	1284	272.287646262409	0
0	1288	272.372841622975	1
0	1289	272.54014292148	0
0	1298	273.31253752387	1
0	1300	273.327494558475	2
0	1301	273.497780246208	1
0	1305	273.578838095168	2
0	1306	273.750276905279	1
0	1310	273.850641654816	2
0	1311	274.00277356435	1
0	1314	274.255270223421	0
0	1318	274.463045787167	1
0	1319	274.507766882492	0
0	1423	298.767069834757	1
0	1424	298.773246714164	0
0	1428	298.945832967561	1
0	1429	299.025743373235	0
0	1438	302.500765205817	1
0	1439	302.688363287248	0
0	1443	302.7707023899	1
0	1444	302.940859946319	0
0	1473	306.528330981825	1
0	1475	306.53464348847	2
0	1476	306.570936210386	1
0	1479	306.823432869457	0
0	1483	306.974556712769	1
0	1484	307.075929528528	0
0	1498	309.226644179562	1
0	1499	309.294154397414	0
0	1514	310.462340640935	1
0	1515	310.553749376045	0
0	1534	314.403964475392	1
0	1535	314.486911298109	0
0	1549	320.043452621604	1
0	1550	320.205710509286	0
0	1559	321.321444535786	1
0	1560	321.416434129273	0
0	1569	322.111651565185	1
0	1570	322.212492026432	0
0	1574	322.299437276077	1
0	1575	322.464988685503	0
0	1579	322.471637199018	1
0	1581	322.522130552268	2
0	1582	322.717485344574	1
0	1585	322.969982003645	0
0	1619	328.029166405139	1
0	1620	328.089063338973	0
0	1649	336.985180948332	1
0	1650	337.206748508318	0
0	1669	338.859753967752	1
0	1671	339.024840178084	2
0	1672	339.035017219969	1
0	1675	339.28751387904	0
0	1709	348.638442031907	1
0	1710	348.874886421225	0
0	1724	349.855028146426	1
0	1725	349.896195920249	0
0	1749	354.583248247171	1
0	1750	354.698857118182	0
0	1765	355.849610111007	1
0	1766	356.058517554201	0
0	1775	356.52942222078	1
0	1777	356.578219439172	2
0	1778	356.7738045586	1
0	1781	357.026301217671	0
0	1820	366.821198933107	1
0	1821	366.874215997055	0
0	1860	372.874753328504	1
0	1861	373.07394910209	0
0	1920	386.876655626048	1
0	1921	386.918862081134	0
0	1935	388.666379514986	1
0	1936	388.861664290682	0
0	1955	393.03431994026	1
0	1956	393.277052026953	0
0	1960	393.492620292071	1
0	1961	393.529548686024	0
0	1965	393.68782360748	1
0	1966	393.782045345095	0
0	1975	394.554912322252	1
0	1976	394.789757323879	0
0	1980	395.039561367018	1
0	1981	395.04225398295	0
0	1990	397.515413956975	1
0	1991	397.599842338193	0
0	2005	399.148730901405	1
0	2006	399.310746591813	0
0	2031	405.517879165816	1
0	2032	405.613498248252	0
0	2041	406.319251724922	1
0	2042	406.456490967148	0
0	2066	411.436352896406	1
0	2067	411.57339020954	0
0	2071	411.654143126957	1
0	2072	411.825886868611	0
0	2086	413.189395511543	1
0	2087	413.193398913343	0
0	2106	417.020349481501	1
0	2107	417.037026047048	0
0	2126	422.413223419463	1
0	2127	422.619087241662	0
0	2176	429.714654596429	1
0	2177	429.727032652478	0
0	2231	439.890875136333	1
0	2232	440.005018799534	0
0	2246	442.61330260207	1
0	2247	442.695163809957	0
0	2256	443.550810567093	1
0	2257	443.620530170048	0
0	2267	445.420841921869	1
0	2268	445.535044788884	0
0	2282	448.623039926325	1
0	2283	448.803056942402	0
0	2302	452.896021778039	1
0	2303	453.032471980525	0
0	2332	458.670204676549	1
0	2333	458.76126046656	0
0	2362	463.275270940548	1
0	2364	463.326392525364	2
0	2365	463.435440314589	1
0	2368	463.68793697366	0
0	2467	489.515560916317	1
0	2468	489.594360515414	0
0	2472	489.701305805746	1
0	2473	489.846857174485	0
0	2487	492.619395420765	1
0	2488	492.625603520712	0
0	2502	496.634714380909	1
0	2503	496.675072403556	0
0	2507	496.705133455145	1
0	2508	496.927569062627	0
0	2514	497.34917237498	1
0	2515	497.368093523109	0
0	2533	500.875446929732	1
0	2534	500.909707121197	0
0	2543	502.461559363418	1
0	2544	502.481992552022	0
0	2563	504.338582838936	1
0	2564	504.502438518653	0
0	2593	512.781157840835	1
0	2594	512.79069341833	0
0	2603	514.730700783315	1
0	2604	514.878460992462	0
0	2618	517.067407903427	1
0	2619	517.311992881701	0
0	2633	518.40041616157	1
0	2634	518.431386977174	0
0	2648	519.443693311303	1
0	2649	519.506023655891	0
0	2693	531.713175273868	1
0	2694	531.792611996557	0
0	2708	533.264292452937	1
0	2709	533.447451554951	0
0	2728	537.56340491132	1
0	2729	537.736756646793	0
0	2765	545.16644776406	1
0	2767	545.168400517359	2
0	2768	545.2668215377	1
0	2770	545.519318196771	0
0	2784	546.785559340066	1
0	2785	546.839904764303	0
0	2809	551.357845449789	1
0	2810	551.558417096858	0
0	2834	555.445902673494	1
0	2835	555.505245675419	0
0	2854	560.042316466472	1
0	2855	560.098825364231	0
0	2859	560.191845764136	1
0	2861	560.333637591019	2
0	2862	560.351322023302	1
0	2865	560.603818682373	0
0	2874	561.539739998786	1
0	2875	561.615371273406	0
0	2884	562.018940410407	1
0	2885	562.227923541655	0
0	2889	562.453913605887	1
0	2890	562.480420200726	0
0	2914	565.380145026503	1
0	2916	565.50739343966	2
0	2917	565.581540353341	1
0	2920	565.834037012412	0
0	2934	569.457629589012	1
0	2935	569.505445341035	0
0	2939	569.58794083231	1
0	2940	569.757942000106	0
0	2979	582.92202395247	1
0	2980	582.9915134896	0
0	2989	583.883910650253	1
0	2990	583.929391216575	0
0	3004	586.452283093748	1
0	3005	586.505587321847	0
0	3014	586.973122090547	1
0	3017	587.207399497459	0
0	3045	590.253064281233	1
0	3046	590.300057225182	0
0	3065	594.777328451983	1
0	3066	594.822649120607	0
0	3075	596.192889048928	1
0	3076	596.22909181092	0
0	3105	602.228110873727	1
0	3106	602.320470086806	0
0	3115	603.58197017228	1
0	3117	603.625206866532	2
0	3118	603.635230620365	1
0	3121	603.887727279436	0
0	3175	622.433498902177	1
0	3176	622.468748680551	0
0	3195	626.683408197828	1
0	3197	626.741475794188	2
0	3198	626.832226021532	1
0	3201	627.084722680603	0
0	3215	628.88610595615	1
0	3216	629.027227580852	0
0	3225	629.921551140797	1
0	3226	630.111977330378	0
0	3250	632.717061431779	1
0	3251	632.8900092732	0
0	3271	636.760857258473	1
0	3272	636.953445666037	0
0	3306	643.258767136726	1
0	3307	643.291471502839	0
0	3316	646.526906395647	1
0	3317	646.713570530489	0
0	3396	668.961206800909	1
0	3397	669.069419657572	0
0	3421	671.27324183492	1
0	3422	671.284866290523	0
0	3431	671.998611421414	1
0	3432	672.226731181289	0
0	3446	674.404961434893	1
0	3447	674.626500881499	0
0	3461	676.554834095433	1
0	3462	676.77847518203	0
0	3481	681.112459435992	1
0	3482	681.351172250739	0
0	3518	692.717085179126	1
0	3519	692.733314661422	0
0	3542	699.928240070031	1
0	3543	700.152877526805	0
0	3567	704.469403696412	1
0	3568	704.586651786152	0
0	3572	704.641753698788	1
0	3573	704.839148445223	0
0	3592	709.667529800023	1
0	3593	709.678044292751	0
0	3597	709.797601171346	1
0	3599	709.868540291096	2
0	3600	709.930540951822	1
0	3603	710.183037610893	0
0	3622	711.59610160842	1
0	3624	711.647714739535	2
0	3625	711.822661731058	1
0	3628	712.075158390129	0
0	3647	713.611174659531	1
0	3648	713.651146628732	0
0	3657	714.360061867728	1
0	3658	714.477764946939	0
0	3667	717.858475380278	1
0	3669	717.94098242187	2
0	3670	718.079411716749	1
0	3673	718.33190837582	0
0	3707	726.326352190636	1
0	3708	726.491304501341	0
0	3727	728.449965141813	1
0	3728	728.458956449526	0
0	3757	732.999136831633	1
0	3758	733.19129056827	0
0	3767	733.710025086756	1
0	3770	734.083097611167	0
0	3773	734.133557157391	1
0	3774	734.335594270238	0
0	3783	735.051607273464	1
0	3785	735.051907089721	2
0	3787	735.166335309907	3
0	3788	735.238487809583	2
0	3791	735.490984468654	1
0	3795	735.647596563452	2
0	3796	735.743481127725	1
0	3798	735.743481127725	0
0	3801	735.924210084341	1
0	3802	735.995977786796	0
0	3836	744.015899828421	1
0	3837	744.26271239893	0
0	3866	749.038556525007	1
0	3867	749.053163410953	0
0	3886	751.520235762888	1
0	3887	751.647031563353	0
0	3901	757.785340727517	1
0	3902	757.798103071497	0
0	3926	766.756332487456	1
0	3927	766.819001840402	0
0	3931	766.829171295751	1
0	3932	767.071498499473	0
0	3936	767.254709241113	1
0	3937	767.323995158544	0
0	3951	768.779577250089	1
0	3952	768.934722463994	0
0	3986	777.766627580891	1
0	3987	777.971178879984	0
0	4016	787.173951300676	1
0	4017	787.235005634958	0
0	4062	796.381875695598	1
0	4063	796.633397627189	0
0	4132	808.83904629929	1
0	4133	808.907286094811	0
0	4152	811.823796075625	1
0	4153	811.839199744676	0
0	4162	812.918134387434	1
0	4163	813.101838184161	0
0	4197	821.82546558354	1
0	4198	821.87540111995	0
0	4202	821.904337757761	1
0	4203	822.127897779021	0
0	4232	826.738158387605	1
0	4233	826.95260013092	0
0	4247	829.133141438625	1
0	4248	829.298210160895	0
0	4283	837.802124159636	1
0	4284	837.955603805388	0
0	4288	838.00413413526	1
0	4289	838.208100464459	0
0	4293	838.311598846138	1
0	4294	838.46059712353	0
0	4343	844.902622148328	1
0	4344	845.13575771843	0
0	4393	862.560300959987	1
0	4394	862.57496994176	0
0	4408	864.920349793986	1
0	4409	865.156372466117	0
0	4423	866.198391800339	1
0	4424	866.309906896741	0
0	4438	868.215868405611	1
0	4439	868.370751812389	0
0	4458	873.212283180829	1
0	4459	873.313077922118	0
0	4468	873.965134350176	1
0	4469	873.994964764752	0
0	4478	876.897221704029	1
0	4479	877.05986985209	0
0	4488	878.580867278448	1
0	4489	878.727405737401	0
0	4518	883.921617131086	1
0	4519	884.04850390148	0
0	4523	884.287927678065	1
0	4526	884.489028361962	0
0	4539	888.613128006045	1
0	4541	888.627924439976	2
0	4542	888.734643358305	1
0	4545	888.987140017376	0
0	4564	892.286760014151	1
0	4565	892.487766039756	0
0	4574	894.304040403467	1
0	4575	894.525466134916	0
0	4604	904.804261833631	1
0	4605	904.980021275791	0
0	4619	907.573777575139	1
0	4620	907.773373224979	0
0	4629	909.413113308502	1
0	4630	909.540978617735	0
0	4639	911.983627430938	1
0	4640	912.218729994079	0
0	4664	918.134022912995	1
0	4665	918.223210927951	0
0	4674	918.682741285406	1
0	4675	918.825612031992	0
0	4699	927.050526817959	1
0	4700	927.260968521803	0
0	4719	930.515939651912	1
0	4720	930.5586752906	0
0	4744	935.926223857127	1
0	4746	935.975193628839	2
0	4747	935.977070184686	1
0	4750	936.229566843757	0
0	4764	937.799328682194	1
0	4765	937.873360463635	0
0	4800	943.413161658918	1
0	4801	943.633900016311	0
0	4835	952.727150854707	1
0	4836	952.889671341828	0
0	4850	956.594810678258	1
0	4851	956.801160178901	0
0	4965	982.929546467403	1
0	4966	982.975362041391	0
0	4975	985.177911632864	1
0	4976	985.269559151527	0
0	5020	993.585885695308	1
0	5021	993.623644947329	0
1	8	0.964520892925	0.168723690448
1	11	1.217017551996	0.33100903772
1	41	8.81490716525	0.226388457128
1	96	20.632121347288	0.25055302697
1	136	27.474087261123	0.082642503014
1	146	28.102644973683	0.106326956182
1	151	28.355141632754	0.0526703398
1	156	28.607638291825	0.080758810386
1	166	29.570244842182	0.208955492581
1	206	43.207356597033	0.108410951879
1	246	55.739397236569	0.176873202591
1	253	56.179921697051	0.388886305959
1	287	66.985493872868	0.209402088953
1	322	75.302422338434	0.177782922151
1	327	75.554918997505	0.16193472915
1	342	78.095889205493	0.122101782883
1	352	80.680604641988	0.174017548465
1	357	80.933101301059	0.068262973091
1	387	85.376114374107	0.08745626077
1	442	96.79957303012	0.238353131786
1	454	99.973708970055	0.066986975983
1	457	100.226205629126	0.273680432578
1	467	101.902441221189	0.246038764486
1	492	108.482888498869	0.072791725497
1	515	114.384966340678	0.238316369385
1	518	114.637462999749	0.440076516259
1	528	115.251024565492	0.184747653457
1	533	115.503521224563	0.038062655341
1	538	115.756017883634	0.008308931758
1	543	116.008514542705	0.027783996008
1	573	121.601434445242	0.095108266815
1	585	122.380455642624	0.14371721775
1	588	122.632952301695	0.319417435917
1	623	131.974273947485	0.230906609969
1	628	132.226770606556	0.031227475511
1	658	138.084201448708	0.180691309749
1	673	146.37319131526	0.133041641476
1	695	151.952642937878	0.095102207117
1	698	152.205139596949	0.323044258548
1	728	159.209304795749	0.112126172806
1	743	161.777544935762	0.226160145208
1	769	169.566734367842	0.145073194838
1	804	175.108875129089	0.194444393715
1	854	185.157479573372	0.113745781366
1	869	187.423211140355	0.126679429672
1	879	189.398260184097	0.178373742732
1	929	199.731829743615	0.006818185305
1	934	199.984326402686	0.045720057349
1	951	201.153036439444	0.073348698842
1	956	201.405533098515	0.266970104116
1	959	201.658029757586	0.305740320373
1	964	201.910526416657	0.07801243215
1	994	213.743249465546	0.036068049379
1	1010	215.656401408789	0.080298130108
1	1015	215.90889806786	0.170691880499
1	1020	216.161394726931	0.017821060617
1	1060	228.20657699904	0.067502706928
1	1100	237.976996883292	0.049297480767
1	1160	250.078697430046	0.152091803161
1	1165	250.331194089117	0.033357240016
1	1219	262.110832642168	0.099790311038
1	1222	262.363329301239	0.324271307982
1	1225	262.61582596031	0.573520877906
1	1243	265.804786283849	0.093950941309
1	1274	271.568979075875	0.080993360829
1	1284	272.287646262409	0.208192281617
1	1289	272.54014292148	0.167301298505
1	1301	273.497780246208	0.185242722338
1	1306	273.750276905279	0.422782346804
1	1311	274.00277356435	0.423935469182
1	1314	274.255270223421	0.404628568605
1	1319	274.507766882492	0.044721095325
1	1424	298.773246714164	0.006176879407
1	1429	299.025743373235	0.079910405674
1	1439	302.688363287248	0.187598081431
1	1444	302.940859946319	0.170157556419
1	1476	306.570936210386	0.042605228561
1	1479	306.823432869457	0.288789380987
1	1484	307.075929528528	0.101372815759
1	1499	309.294154397414	0.067510217852
1	1515	310.553749376045	0.09140873511
1	1535	314.486911298109	0.082946822717
1	1550	320.205710509286	0.162257887682
1	1560	321.416434129273	0.094989593487
1	1570	322.212492026432	0.100840461247
1	1575	322.464988685503	0.165551409426
1	1582	322.717485344574	0.245848145556
1	1585	322.969982003645	0.447851451377
1	1620	328.089063338973	0.059896933834
1	1650	337.206748508318	0.221567559986
1	1672	339.035017219969	0.175263252217
1	1675	339.28751387904	0.262673700956
1	1710	348.874886421225	0.236444389318
1	1725	349.896195920249	0.041167773823
1	1750	354.698857118182	0.115608871011
1	1766	356.058517554201	0.208907443194
1	1778	356.7738045586	0.24438233782
1	1781	357.026301217671	0.448081778499
1	1821	366.874215997055	0.053017063948
1	1861	373.07394910209	0.199195773586
1	1921	386.918862081134	0.042206455086
1	1936	388.861664290682	0.195284775696
1	1956	393.277052026953	0.242732086693
1	1961	393.529548686024	0.036928393953
1	1966	393.782045345095	0.094221737615
1	1976	394.789757323879	0.234845001627
1	1981	395.04225398295	0.002692615932
1	1991	397.599842338193	0.084428381218
1	2006	399.310746591813	0.162015690408
1	2032	405.613498248252	0.095619082436
1	2042	406.456490967148	0.137239242226
1	2067	411.57339020954	0.137037313134
1	2072	411.825886868611	0.171743741654
1	2087	413.193398913343	0.0040034018
1	2107	417.037026047048	0.016676565547
1	2127	422.619087241662	0.205863822199
1	2177	429.727032652478	0.012378056049
1	2232	440.005018799534	0.114143663201
1	2247	442.695163809957	0.081861207887
1	2257	443.620530170048	0.069719602955
1	2268	445.535044788884	0.114202867015
1	2283	448.803056942402	0.180017016077
1	2303	453.032471980525	0.136450202486
1	2333	458.76126046656	0.091055790011
1	2365	463.435440314589	0.160169374041
1	2368	463.68793697366	0.361544448296
1	2468	489.594360515414	0.078799599097
1	2473	489.846857174485	0.145551368739
1	2488	492.625603520712	0.006208099947
1	2503	496.675072403556	0.040358022647
1	2508	496.927569062627	0.222435607482
1	2515	497.368093523109	0.018921148129
1	2534	500.909707121197	0.034260191465
1	2544	502.481992552022	0.020433188604
1	2564	504.502438518653	0.163855679717
1	2594	512.79069341833	0.009535577495
1	2604	514.878460992462	0.147760209147
1	2619	517.311992881701	0.244584978274
1	2634	518.431386977174	0.030970815604
1	2649	519.506023655891	0.062330344588
1	2694	531.792611996557	0.079436722689
1	2709	533.447451554951	0.183159102014
1	2729	537.736756646793	0.173351735473
1	2768	545.2668215377	0.10037377364
1	2770	545.519318196771	0.350917679412
1	2785	546.839904764303	0.054345424237
1	2810	551.558417096858	0.200571647069
1	2835	555.505245675419	0.059343001925
1	2855	560.098825364231	0.056508897759
1	2862	560.351322023302	0.159476259166
1	2865	560.603818682373	0.270181091354
1	2875	561.615371273406	0.07563127462
1	2885	562.227923541655	0.208983131248
1	2890	562.480420200726	0.026506594839
1	2917	565.581540353341	0.201395326838
1	2920	565.834037012412	0.326643572752
1	2935	569.505445341035	0.047815752023
1	2940	569.757942000106	0.170001167796
1	2980	582.9915134896	0.06948953713
1	2990	583.929391216575	0.045480566322
1	3005	586.505587321847	0.053304228099
1	3017	587.207399497459	0.234277406912
1	3046	590.300057225182	0.046992943949
1	3066	594.822649120607	0.045320668624
1	3076	596.22909181092	0.036202761992
1	3106	602.320470086806	0.092359213079
1	3118	603.635230620365	0.053260448085
1	3121	603.887727279436	0.262520412904
1	3176	622.468748680551	0.035249778374
1	3198	626.832226021532	0.148817823704
1	3201	627.084722680603	0.343246886415
1	3216	629.027227580852	0.141121624702
1	3226	630.111977330378	0.190426189581
1	3251	632.8900092732	0.172947841421
1	3272	636.953445666037	0.192588407564
1	3307	643.291471502839	0.032704366113
1	3317	646.713570530489	0.186664134842
1	3397	669.069419657572	0.108212856663
1	3422	671.284866290523	0.011624455603
1	3432	672.226731181289	0.228119759875
1	3447	674.626500881499	0.221539446606
1	3462	676.77847518203	0.223641086597
1	3482	681.351172250739	0.238712814747
1	3519	692.733314661422	0.016229482296
1	3543	700.152877526805	0.224637456774
1	3568	704.586651786152	0.11724808974
1	3573	704.839148445223	0.197394746435
1	3593	709.678044292751	0.010514492728
1	3600	709.930540951822	0.132939780476
1	3603	710.183037610893	0.314497319797
1	3625	711.822661731058	0.226560122638
1	3628	712.075158390129	0.427443650594
1	3648	713.651146628732	0.039971969201
1	3658	714.477764946939	0.117703079211
1	3670	718.079411716749	0.220936336471
1	3673	718.33190837582	0.39092595395
1	3708	726.491304501341	0.164952310705
1	3728	728.458956449526	0.008991307713
1	3758	733.19129056827	0.192153736637
1	3770	734.083097611167	0.373072524411
1	3774	734.335594270238	0.202037112847
1	3788	735.238487809583	0.186880536119
1	3791	735.490984468654	0.439077378933
1	3796	735.743481127725	0.577145817818
1	3798	735.743481127725	0.095884564273
1	3802	735.995977786796	0.071767702455
1	3837	744.26271239893	0.246812570509
1	3867	749.053163410953	0.014606885946
1	3887	751.647031563353	0.126795800465
1	3902	757.798103071497	0.01276234398
1	3927	766.819001840402	0.062669352946
1	3932	767.071498499473	0.242327203722
1	3937	767.323995158544	0.069285917431
1	3952	768.934722463994	0.155145213905
1	3987	777.971178879984	0.204551299093
1	4017	787.235005634958	0.061054334282
1	4063	796.633397627189	0.251521931591
1	4133	808.907286094811	0.068239795521
1	4153	811.839199744676	0.015403669051
1	4163	813.101838184161	0.183703796727
1	4198	821.87540111995	0.04993553641
1	4203	822.127897779021	0.22356002126
1	4233	826.95260013092	0.214441743315
1	4248	829.298210160895	0.16506872227
1	4284	837.955603805388	0.153479645752
1	4289	838.208100464459	0.203966329199
1	4294	838.46059712353	0.148998277392
1	4344	845.13575771843	0.233135570102
1	4394	862.57496994176	0.014668981773
1	4409	865.156372466117	0.236022672131
1	4424	866.309906896741	0.111515096402
1	4439	868.370751812389	0.154883406778
1	4459	873.313077922118	0.100794741289
1	4469	873.994964764752	0.029830414576
1	4479	877.05986985209	0.162648148061
1	4489	878.727405737401	0.146538458953
1	4519	884.04850390148	0.126886770394
1	4526	884.489028361962	0.201100683897
1	4542	888.734643358305	0.12151535226
1	4545	888.987140017376	0.3592155774
1	4565	892.487766039756	0.201006025605
1	4575	894.525466134916	0.221425731449
1	4605	904.980021275791	0.17575944216
1	4620	907.773373224979	0.19959564984
1	4630	909.540978617735	0.127865309233
1	4640	912.218729994079	0.235102563141
1	4665	918.223210927951	0.089188014956
1	4675	918.825612031992	0.142870746586
1	4700	927.260968521803	0.210441703844
1	4720	930.5586752906	0.042735638688
1	4747	935.977070184686	0.050846327559
1	4750	936.229566843757	0.254373214918
1	4765	937.873360463635	0.074031781441
1	4801	943.633900016311	0.220738357393
1	4836	952.889671341828	0.162520487121
1	4851	956.801160178901	0.206349500643
1	4966	982.975362041391	0.045815573988
1	4976	985.269559151527	0.091647518663
1	5021	993.623644947329	0.037759252021
2	9	0.964520892925	0.252496659071
2	12	1.217017551996	0.421220349519
2	15	1.469514211067	0.583505696791
2	20	2.215113549907	0.252496659071
2	25	4.82123435228	0.252496659071
2	30	6.932799745051	0.252496659071
2	35	7.829214303968	0.252496659071
2	42	8.81490716525	0.252496659071
2	45	9.067403824321	0.478885116199
2	50	11.391208083873	0.252496659071
2	55	11.692245200613	0.252496659071
2	60	11.979509547907	0.252496659071
2	65	12.956293790867	0.252496659071
2	70	13.81112190996	0.252496659071
2	75	14.223220366601	0.252496659071
2	80	16.220789062831	0.252496659071
2	85	17.13855964569	0.252496659071
2	90	18.835788529772	0.252496659071
2	97	20.632121347288	0.252496659071
2	100	20.884618006359	0.503049686041
2	105	21.748093345315	0.252496659071
2	110	22.924019867829	0.252496659071
2	115	23.72827829191	0.252496659071
2	120	24.529869958712	0.252496659071
2	125	25.003647034754	0.252496659071
2	130	25.371340694909	0.252496659071
2	137	27.474087261123	0.252496659071
2	140	27.726583920194	0.335139162085
2	147	28.102644973683	0.252496659071
2	152	28.355141632754	0.358823615253
2	157	28.607638291825	0.305166998871
2	160	28.860134950896	0.333255469457
2	167	29.570244842182	0.252496659071
2	170	29.822741501253	0.461452151652
2	175	31.550379312302	0.252496659071
2	180	31.854072003117	0.252496659071
2	185	35.500911763279	0.252496659071
2	190	36.061276493123	0.252496659071
2	195	36.513221083502	0.252496659071
2	200	39.737095336432	0.252496659071
2	207	43.207356597033	0.252496659071
2	210	43.459853256104	0.36090761095
2	215	46.462700884608	0.252496659071
2	220	50.337390849326	0.252496659071
2	225	52.083985023971	0.252496659071
2	230	53.198072458663	0.252496659071
2	235	53.850144451343	0.252496659071
2	240	54.512692717901	0.252496659071
2	247	55.739397236569	0.252496659071
2	252	55.99189389564	0.429369861662
2	256	56.432418356122	0.64138296503
2	261	57.192622774539	0.252496659071
2	266	60.513733330028	0.252496659071
2	271	64.253647510935	0.252496659071
2	276	66.062961932926	0.252496659071
2	281	66.546918703129	0.252496659071
2	288	66.985493872868	0.252496659071
2	291	67.237990531939	0.461898748024
2	296	68.19265887525	0.252496659071
2	301	68.602313548677	0.252496659071
2	306	71.618151740851	0.252496659071
2	311	72.060223752287	0.252496659071
2	316	73.046523939827	0.252496659071
2	323	75.302422338434	0.252496659071
2	328	75.554918997505	0.430279581222
2	331	75.807415656576	0.414431388221
2	336	76.092716275363	0.252496659071
2	343	78.095889205493	0.252496659071
2	346	78.348385864564	0.374598441954
2	353	80.680604641988	0.252496659071
2	358	80.933101301059	0.426514207536
2	361	81.18559796013	0.320759632162
2	366	81.564521545008	0.252496659071
2	371	81.839741384325	0.252496659071
2	376	82.530098088573	0.252496659071
2	381	83.979884943992	0.252496659071
2	388	85.376114374107	0.252496659071
2	391	85.628611033178	0.339952919841
2	396	86.500877853365	0.252496659071
2	401	87.552447469303	0.252496659071
2	406	88.227170341929	0.252496659071
2	411	89.457581491695	0.252496659071
2	416	89.921627873247	0.252496659071
2	421	90.247992286688	0.252496659071
2	426	90.912312110383	0.252496659071
2	431	92.587522855814	0.252496659071
2	436	95.631441342133	0.252496659071
2	443	96.79957303012	0.252496659071
2	446	97.052069689191	0.490849790857
2	455	99.973708970055	0.252496659071
2	458	100.226205629126	0.319483635054
2	461	100.478702288197	0.526177091649
2	468	101.902441221189	0.252496659071
2	471	102.15493788026	0.498535423557
2	476	102.558968051476	0.252496659071
2	481	104.612151126175	0.252496659071
2	486	106.416569977466	0.252496659071
2	493	108.482888498869	0.252496659071
2	496	108.73538515794	0.325288384568
2	501	109.76610744649	0.252496659071
2	507	114.081155452457	0.252496659071
2	516	114.384966340678	0.252496659071
2	519	114.637462999749	0.490813028456
2	522	114.88995965882	0.69257317533
2	529	115.251024565492	0.252496659071
2	534	115.503521224563	0.437244312528
2	539	115.756017883634	0.290559314412
2	544	116.008514542705	0.260805590829
2	547	116.261011201776	0.280280655079
2	552	117.643401247111	0.252496659071
2	557	118.935390938705	0.252496659071
2	562	121.017328650627	0.252496659071
2	567	121.322300675628	0.252496659071
2	574	121.601434445242	0.252496659071
2	577	121.853931104313	0.347604925886
2	586	122.380455642624	0.252496659071
2	589	122.632952301695	0.396213876821
2	592	122.885448960766	0.571914094988
2	597	123.199339385033	0.252496659071
2	602	125.942794761034	0.252496659071
2	607	127.732425997912	0.252496659071
2	612	128.987851160676	0.252496659071
2	617	131.309056480744	0.252496659071
2	624	131.974273947485	0.252496659071
2	629	132.226770606556	0.48340326904
2	632	132.479267265627	0.283724134582
2	637	133.271432707168	0.252496659071
2	642	135.81403262839	0.252496659071
2	647	136.684838636778	0.252496659071
2	652	137.176125367426	0.252496659071
2	659	138.084201448708	0.252496659071
2	662	138.336698107779	0.43318796882
2	667	142.534266022031	0.252496659071
2	674	146.37319131526	0.252496659071
2	677	146.625687974331	0.385538300547
2	682	147.32742429534	0.252496659071
2	687	151.606818948582	0.252496659071
2	696	151.952642937878	0.252496659071
2	699	152.205139596949	0.347598866188
2	702	152.45763625602	0.575540917619
2	707	154.270737611563	0.252496659071
2	712	156.804231481356	0.252496659071
2	717	157.297844678065	0.252496659071
2	722	158.67445723937	0.252496659071
2	729	159.209304795749	0.252496659071
2	732	159.46180145482	0.364622831877
2	737	160.152362848847	0.252496659071
2	744	161.777544935762	0.252496659071
2	747	162.030041594833	0.478656804279
2	752	164.961461422256	0.252496659071
2	758	166.725840322111	0.252496659071
2	763	167.345278963396	0.252496659071
2	770	169.566734367842	0.252496659071
2	773	169.819231026913	0.397569853909
2	778	170.085712689373	0.252496659071
2	783	171.702399182445	0.252496659071
2	788	172.184486423043	0.252496659071
2	793	173.391270659908	0.252496659071
2	798	173.730013836885	0.252496659071
2	805	175.108875129089	0.252496659071
2	808	175.36137178816	0.446941052786
2	813	175.660174295764	0.252496659071
2	818	176.557070018506	0.252496659071
2	823	178.986207888252	0.252496659071
2	828	180.95461643098	0.252496659071
2	833	181.815185724259	0.252496659071
2	838	182.390256937444	0.252496659071
2	843	182.822529233999	0.252496659071
2	848	184.861621260761	0.252496659071
2	855	185.157479573372	0.252496659071
2	858	185.409976232443	0.366242440437
2	863	186.584054620807	0.252496659071
2	870	187.423211140355	0.252496659071
2	873	187.675707799426	0.379176088743
2	880	189.398260184097	0.252496659071
2	883	189.650756843168	0.430870401803
2	888	191.386051940452	0.252496659071
2	893	192.910343093271	0.252496659071
2	898	193.960110273642	0.252496659071
2	903	195.795734952128	0.252496659071
2	908	196.773784226134	0.252496659071
2	913	197.636116661691	0.252496659071
2	918	198.000298281249	0.252496659071
2	923	199.450841348119	0.252496659071
2	930	199.731829743615	0.252496659071
2	935	199.984326402686	0.259314844376
2	938	200.236823061757	0.29821671642
2	943	200.496451787826	0.252496659071
2	952	201.153036439444	0.252496659071
2	957	201.405533098515	0.325845357913
2	960	201.658029757586	0.519466763187
2	965	201.910526416657	0.558236979444
2	968	202.163023075728	0.330509091221
2	973	203.69823891656	0.252496659071
2	978	204.259300272689	0.252496659071
2	983	204.981770654663	0.252496659071
2	988	210.99501278675	0.252496659071
2	995	213.743249465546	0.252496659071
2	998	213.995746124617	0.28856470845
2	1003	214.787901724673	0.252496659071
2	1011	215.656401408789	0.252496659071
2	1016	215.90889806786	0.332794789179
2	1021	216.161394726931	0.42318853957
2	1024	216.413891386002	0.270317719688
2	1029	217.569621878447	0.252496659071
2	1034	218.372901691416	0.252496659071
2	1039	220.096135111411	0.252496659071
2	1044	220.607172413673	0.252496659071
2	1049	224.614587833646	0.252496659071
2	1054	227.697870101643	0.252496659071
2	1061	228.20657699904	0.252496659071
2	1064	228.459073658111	0.319999365999
2	1069	231.7851804434	0.252496659071
2	1074	232.906792742173	0.252496659071
2	1079	233.867985939807	0.252496659071
2	1084	234.589229611641	0.252496659071
2	1089	235.197208850951	0.252496659071
2	1094	236.276351040615	0.252496659071
2	1101	237.976996883292	0.252496659071
2	1104	238.229493542363	0.301794139838
2	1109	238.761165079089	0.252496659071
2	1114	239.268400960075	0.252496659071
2	1119	240.292213272093	0.252496659071
2	1124	240.655136507853	0.252496659071
2	1129	242.673570532422	0.252496659071
2	1134	243.293545934325	0.252496659071
2	1139	244.257943844921	0.252496659071
2	1144	246.063234041929	0.252496659071
2	1149	246.620941190141	0.252496659071
2	1154	246.930474498532	0.252496659071
2	1161	250.078697430046	0.252496659071
2	1166	250.331194089117	0.404588462232
2	1169	250.583690748188	0.285853899087
2	1174	251.568564690624	0.252496659071
2	1179	252.189572345984	0.252496659071
2	1184	252.586186899561	0.252496659071
2	1189	254.026833003493	0.252496659071
2	1194	254.450012303418	0.252496659071
2	1199	255.669335071735	0.252496659071
2	1204	257.374820262828	0.252496659071
2	1209	259.640962595889	0.252496659071
2	1220	262.110832642168	0.252496659071
2	1223	262.363329301239	0.352286970109
2	1226	262.61582596031	0.576767967053
2	1232	263.127959266743	0.252496659071
2	1237	263.809617952669	0.252496659071
2	1244	265.804786283849	0.252496659071
2	1247	266.05728294292	0.34644760038
2	1252	266.594758140785	0.252496659071
2	1257	267.114811594026	0.252496659071
2	1263	269.458461272996	0.252496659071
2	1268	271.247310422685	0.252496659071
2	1275	271.568979075875	0.252496659071
2	1278	271.821475734946	0.3334900199
2	1285	272.287646262409	0.252496659071
2	1290	272.54014292148	0.460688940688
2	1293	272.792639580551	0.419797957576
2	1302	273.497780246208	0.252496659071
2	1307	273.750276905279	0.437739381409
2	1312	274.00277356435	0.675279005875
2	1315	274.255270223421	0.676432128253
2	1320	274.507766882492	0.657125227676
2	1323	274.760263541563	0.297217754396
2	1328	275.919991924089	0.252496659071
2	1333	276.450161300145	0.252496659071
2	1338	279.183174460352	0.252496659071
2	1343	279.445500735263	0.252496659071
2	1348	281.560245073177	0.252496659071
2	1353	281.947940949614	0.252496659071
2	1358	284.408305997495	0.252496659071
2	1363	287.270740591098	0.252496659071
2	1368	287.954823136852	0.252496659071
2	1373	288.986399336185	0.252496659071
2	1378	289.262610463781	0.252496659071
2	1383	289.660946783176	0.252496659071
2	1388	290.484979025806	0.252496659071
2	1393	291.030624055241	0.252496659071
2	1398	291.552011757731	0.252496659071
2	1403	292.954646447542	0.252496659071
2	1408	294.171391049806	0.252496659071
2	1413	295.936319418046	0.252496659071
2	1418	297.129072043466	0.252496659071
2	1425	298.773246714164	0.252496659071
2	1430	299.025743373235	0.258673538478
2	1433	299.278240032306	0.332407064745
2	1440	302.688363287248	0.252496659071
2	1445	302.940859946319	0.440094740502
2	1448	303.19335660539	0.42265421549
2	1453	304.042440992671	0.252496659071
2	1458	304.483155543845	0.252496659071
2	1463	305.594999147077	0.252496659071
2	1468	306.057041933282	0.252496659071
2	1477	306.570936210386	0.252496659071
2	1480	306.823432869457	0.295101887632
2	1485	307.075929528528	0.541286040058
2	1488	307.328426187599	0.35386947483
2	1493	308.262727691294	0.252496659071
2	1500	309.294154397414	0.252496659071
2	1503	309.546651056485	0.320006876923
2	1508	309.828686896483	0.252496659071
2	1516	310.553749376045	0.252496659071
2	1519	310.806246035116	0.343905394181
2	1524	312.175519658998	0.252496659071
2	1529	313.401516186151	0.252496659071
2	1536	314.486911298109	0.252496659071
2	1539	314.73940795718	0.335443481788
2	1544	317.409810707246	0.252496659071
2	1551	320.205710509286	0.252496659071
2	1554	320.458207168357	0.414754546753
2	1561	321.416434129273	0.252496659071
2	1564	321.668930788344	0.347486252558
2	1571	322.212492026432	0.252496659071
2	1576	322.464988685503	0.353337120318
2	1583	322.717485344574	0.418048068497
2	1586	322.969982003645	0.498344804627
2	1589	323.222478662716	0.700348110448
2	1594	323.881825016447	0.252496659071
2	1599	324.597230502563	0.252496659071
2	1604	325.271976274156	0.252496659071
2	1609	327.236876880213	0.252496659071
2	1614	327.726229764985	0.252496659071
2	1621	328.089063338973	0.252496659071
2	1624	328.341559998044	0.312393592905
2	1629	329.697315155044	0.252496659071
2	1634	330.826869118278	0.252496659071
2	1639	331.562108437546	0.252496659071
2	1644	334.39718950586	0.252496659071
2	1651	337.206748508318	0.252496659071
2	1654	337.459245167389	0.474064219057
2	1659	337.732098749332	0.252496659071
2	1664	338.418335728462	0.252496659071
2	1673	339.035017219969	0.252496659071
2	1676	339.28751387904	0.427759911288
2	1679	339.540010538111	0.515170360027
2	1684	342.438274693674	0.252496659071
2	1689	343.940861961019	0.252496659071
2	1694	347.12262431838	0.252496659071
2	1699	347.71811949551	0.252496659071
2	1704	348.371091676602	0.252496659071
2	1711	348.874886421225	0.252496659071
2	1714	349.127383080296	0.488941048389
2	1719	349.623652753462	0.252496659071
2	1726	349.896195920249	0.252496659071
2	1729	350.14869257932	0.293664432894
2	1734	351.025300814363	0.252496659071
2	1739	351.749481536103	0.252496659071
2	1744	352.101875794957	0.252496659071
2	1751	354.698857118182	0.252496659071
2	1754	354.951353777253	0.368105530082
2	1759	355.459632500295	0.252496659071
2	1767	356.058517554201	0.252496659071
2	1770	356.311014213272	0.461404102265
2	1779	356.7738045586	0.252496659071
2	1782	357.026301217671	0.496878996891
2	1785	357.278797876742	0.70057843757
2	1790	357.74101738583	0.252496659071
2	1795	359.254929725816	0.252496659071
2	1800	360.774126406753	0.252496659071
2	1805	365.106513052	0.252496659071
2	1810	365.506642830907	0.252496659071
2	1815	366.610810505708	0.252496659071
2	1822	366.874215997055	0.252496659071
2	1825	367.126712656126	0.305513723019
2	1830	367.501387425487	0.252496659071
2	1835	367.907600717597	0.252496659071
2	1840	368.247358549623	0.252496659071
2	1845	368.542938198936	0.252496659071
2	1850	370.180898462318	0.252496659071
2	1855	371.436846425467	0.252496659071
2	1862	373.07394910209	0.252496659071
2	1865	373.326445761161	0.451692432657
2	1870	374.384732397482	0.252496659071
2	1875	376.598257333715	0.252496659071
2	1880	377.329047774178	0.252496659071
2	1885	378.370998287811	0.252496659071
2	1890	378.680376798303	0.252496659071
2	1895	379.255924552716	0.252496659071
2	1900	380.495457330673	0.252496659071
2	1905	381.261011878268	0.252496659071
2	1910	382.136795674305	0.252496659071
2	1915	385.409887029077	0.252496659071
2	1922	386.918862081134	0.252496659071
2	1925	387.171358740205	0.294703114157
2	1930	388.29229874305	0.252496659071
2	1937	388.861664290682	0.252496659071
2	1940	389.114160949753	0.447781434767
2	1945	389.746576310794	0.252496659071
2	1950	392.953425152346	0.252496659071
2	1957	393.277052026953	0.252496659071
2	1962	393.529548686024	0.495228745764
2	1967	393.782045345095	0.289425053024
2	1970	394.034542004166	0.346718396686
2	1977	394.789757323879	0.252496659071
2	1982	395.04225398295	0.487341660698
2	1985	395.294750642021	0.255189275003
2	1992	397.599842338193	0.252496659071
2	1995	397.852338997264	0.336925040289
2	2000	398.989106584919	0.252496659071
2	2007	399.310746591813	0.252496659071
2	2010	399.563243250884	0.414512349479
2	2016	402.178287758222	0.252496659071
2	2021	403.241390720084	0.252496659071
2	2026	403.644580241655	0.252496659071
2	2033	405.613498248252	0.252496659071
2	2036	405.865994907323	0.348115741507
2	2043	406.456490967148	0.252496659071
2	2046	406.708987626219	0.389735901297
2	2051	407.632776907395	0.252496659071
2	2056	409.058065155917	0.252496659071
2	2061	409.655336157759	0.252496659071
2	2068	411.57339020954	0.252496659071
2	2073	411.825886868611	0.389533972205
2	2076	412.078383527682	0.424240400725
2	2081	412.888952689781	0.252496659071
2	2088	413.193398913343	0.252496659071
2	2091	413.445895572414	0.256500060871
2	2096	415.2114147085	0.252496659071
2	2101	416.592708331327	0.252496659071
2	2108	417.037026047048	0.252496659071
2	2111	417.289522706119	0.269173224618
2	2116	420.316698661432	0.252496659071
2	2121	420.844470022192	0.252496659071
2	2128	422.619087241662	0.252496659071
2	2131	422.871583900733	0.45836048127
2	2136	424.530296434298	0.252496659071
2	2141	424.94790582213	0.252496659071
2	2146	426.030786649841	0.252496659071
2	2151	426.634339956455	0.252496659071
2	2156	426.934591950495	0.252496659071
2	2161	427.603791848853	0.252496659071
2	2166	427.944917816006	0.252496659071
2	2171	428.357809813067	0.252496659071
2	2178	429.727032652478	0.252496659071
2	2181	429.979529311549	0.26487471512
2	2186	431.073090706724	0.252496659071
2	2191	431.756499092985	0.252496659071
2	2196	432.062292404398	0.252496659071
2	2201	432.488086496269	0.252496659071
2	2206	435.2740754516	0.252496659071
2	2211	436.933338396866	0.252496659071
2	2216	437.238214653204	0.252496659071
2	2221	438.265904846446	0.252496659071
2	2226	438.793170079086	0.252496659071
2	2233	440.005018799534	0.252496659071
2	2236	440.257515458605	0.366640322272
2	2241	441.783868659753	0.252496659071
2	2248	442.695163809957	0.252496659071
2	2251	442.947660469028	0.334357866958
2	2258	443.620530170048	0.252496659071
2	2261	443.873026829119	0.322216262026
2	2269	445.535044788884	0.252496659071
2	2272	445.787541447955	0.366699526086
2	2277	447.123466064581	0.252496659071
2	2284	448.803056942402	0.252496659071
2	2287	449.055553601473	0.432513675148
2	2292	450.257147362713	0.252496659071
2	2297	452.701615028215	0.252496659071
2	2304	453.032471980525	0.252496659071
2	2307	453.284968639596	0.388946861557
2	2312	455.987632240697	0.252496659071
2	2317	456.299425204627	0.252496659071
2	2322	457.115581811466	0.252496659071
2	2327	458.41911860169	0.252496659071
2	2334	458.76126046656	0.252496659071
2	2337	459.013757125631	0.343552449082
2	2342	460.017427403285	0.252496659071
2	2347	461.366758815364	0.252496659071
2	2352	461.984207484346	0.252496659071
2	2357	462.366733190133	0.252496659071
2	2366	463.435440314589	0.252496659071
2	2369	463.68793697366	0.412666033112
2	2372	463.940433632731	0.614041107367
2	2377	465.162953116315	0.252496659071
2	2382	465.92273120482	0.252496659071
2	2387	466.594116886425	0.252496659071
2	2392	468.697242669553	0.252496659071
2	2397	470.039918689094	0.252496659071
2	2402	470.42365359703	0.252496659071
2	2407	472.440672927003	0.252496659071
2	2412	473.066719666548	0.252496659071
2	2417	474.451113952186	0.252496659071
2	2422	476.584377457717	0.252496659071
2	2427	478.670957504061	0.252496659071
2	2432	478.932838943665	0.252496659071
2	2437	479.332204069268	0.252496659071
2	2442	481.491952313566	0.252496659071
2	2447	484.351009411567	0.252496659071
2	2452	485.222904356574	0.252496659071
2	2457	487.135818862818	0.252496659071
2	2462	488.615858883143	0.252496659071
2	2469	489.594360515414	0.252496659071
2	2474	489.846857174485	0.331296258168
2	2477	490.099353833556	0.39804802781
2	2482	490.448716929851	0.252496659071
2	2489	492.625603520712	0.252496659071
2	2492	492.878100179783	0.258704759018
2	2497	496.143143517277	0.252496659071
2	2504	496.675072403556	0.252496659071
2	2509	496.927569062627	0.292854681718
2	2512	497.180065721698	0.474932266553
2	2518	497.62059018218	0.2714178072
2	2523	498.341994648408	0.252496659071
2	2528	498.84499266528	0.252496659071
2	2535	500.909707121197	0.252496659071
2	2538	501.162203780268	0.286756850536
2	2545	502.481992552022	0.252496659071
2	2548	502.734489211093	0.272929847675
2	2553	503.238399330581	0.252496659071
2	2558	504.153756028589	0.252496659071
2	2565	504.502438518653	0.252496659071
2	2568	504.754935177724	0.416352338788
2	2573	507.933130530995	0.252496659071
2	2578	508.451850515853	0.252496659071
2	2583	510.125442187308	0.252496659071
2	2588	512.103247742083	0.252496659071
2	2595	512.79069341833	0.252496659071
2	2598	513.043190077401	0.262032236566
2	2605	514.878460992462	0.252496659071
2	2608	515.130957651533	0.400256868218
2	2613	517.053970964041	0.252496659071
2	2620	517.311992881701	0.252496659071
2	2623	517.564489540772	0.497081637345
2	2628	518.003386680793	0.252496659071
2	2635	518.431386977174	0.252496659071
2	2638	518.683883636245	0.283467474675
2	2643	518.992938358015	0.252496659071
2	2650	519.506023655891	0.252496659071
2	2653	519.758520314962	0.314827003659
2	2658	522.033406308975	0.252496659071
2	2663	523.218802229377	0.252496659071
2	2668	524.00261386535	0.252496659071
2	2673	524.308449079572	0.252496659071
2	2678	528.253918207919	0.252496659071
2	2683	530.020414784488	0.252496659071
2	2688	530.291291989633	0.252496659071
2	2695	531.792611996557	0.252496659071
2	2698	532.045108655628	0.33193338176
2	2703	532.584010787402	0.252496659071
2	2710	533.447451554951	0.252496659071
2	2713	533.699948214022	0.435655761085
2	2718	536.297511827038	0.252496659071
2	2723	536.5665393921	0.252496659071
2	2730	537.736756646793	0.252496659071
2	2733	537.989253305864	0.425848394544
2	2738	540.253272376982	0.252496659071
2	2743	541.800955186423	0.252496659071
2	2748	542.456440217721	0.252496659071
2	2753	543.646826833881	0.252496659071
2	2758	544.355501276339	0.252496659071
2	2763	545.078793736289	0.252496659071
2	2771	545.519318196771	0.352870432711
2	2774	545.771814855842	0.603414338483
2	2779	546.047737185902	0.252496659071
2	2786	546.839904764303	0.252496659071
2	2789	547.092401423374	0.306842083308
2	2794	547.380825901398	0.252496659071
2	2799	549.757653958828	0.252496659071
2	2804	550.039300787938	0.252496659071
2	2811	551.558417096858	0.252496659071
2	2814	551.810913755929	0.45306830614
2	2819	553.216519101544	0.252496659071
2	2824	554.10930985788	0.252496659071
2	2829	554.50087492612	0.252496659071
2	2836	555.505245675419	0.252496659071
2	2839	555.75774233449	0.311839660996
2	2844	557.429967556249	0.252496659071
2	2849	559.828417493004	0.252496659071
2	2856	560.098825364231	0.252496659071
2	2863	560.351322023302	0.30900555683
2	2866	560.603818682373	0.411972918237
2	2869	560.856315341444	0.522677750425
2	2876	561.615371273406	0.252496659071
2	2879	561.867867932477	0.328127933691
2	2886	562.227923541655	0.252496659071
2	2891	562.480420200726	0.461479790319
2	2894	562.732916859797	0.27900325391
2	2899	563.63030978925	0.252496659071
2	2904	564.8211406356	0.252496659071
2	2909	565.156293444288	0.252496659071
2	2918	565.581540353341	0.252496659071
2	2921	565.834037012412	0.453891985909
2	2924	566.086533671483	0.579140231823
2	2929	567.319661181805	0.252496659071
2	2936	569.505445341035	0.252496659071
2	2941	569.757942000106	0.300312411094
2	2944	570.010438659177	0.422497826867
2	2949	572.687690880158	0.252496659071
2	2954	573.938359516044	0.252496659071
2	2959	574.353295506744	0.252496659071
2	2964	578.406944407019	0.252496659071
2	2969	580.323718514639	0.252496659071
2	2974	581.843121676671	0.252496659071
2	2981	582.9915134896	0.252496659071
2	2984	583.244010148671	0.321986196201
2	2991	583.929391216575	0.252496659071
2	2994	584.181887875646	0.297977225393
2	2999	586.216738708297	0.252496659071
2	3006	586.505587321847	0.252496659071
2	3009	586.758083980918	0.30580088717
2	3016	587.019371696048	0.252496659071
2	3020	587.45989615653	0.486774065983
2	3025	588.221868193063	0.252496659071
2	3030	589.088699564653	0.252496659071
2	3035	589.534703649097	0.252496659071
2	3040	589.881955064253	0.252496659071
2	3047	590.300057225182	0.252496659071
2	3050	590.552553884253	0.29948960302
2	3055	593.21015497248	0.252496659071
2	3060	593.879259178187	0.252496659071
2	3067	594.822649120607	0.252496659071
2	3070	595.075145779678	0.297817327695
2	3077	596.22909181092	0.252496659071
2	3080	596.481588469991	0.288699421063
2	3085	596.862097597889	0.252496659071
2	3090	598.333871597455	0.252496659071
2	3095	600.934966835106	0.252496659071
2	3100	601.984831758518	0.252496659071
2	3107	602.320470086806	0.252496659071
2	3110	602.572966745877	0.34485587215
2	3119	603.635230620365	0.252496659071
2	3122	603.887727279436	0.305757107156
2	3125	604.140223938507	0.515017071975
2	3130	605.764898127933	0.252496659071
2	3135	607.367342901382	0.252496659071
2	3140	608.739270553785	0.252496659071
2	3145	613.166025212181	0.252496659071
2	3150	614.477796816835	0.252496659071
2	3155	615.382277600486	0.252496659071
2	3160	616.031368707395	0.252496659071
2	3165	617.668857811312	0.252496659071
2	3170	622.146508948124	0.252496659071
2	3177	622.468748680551	0.252496659071
2	3180	622.721245339622	0.287746437445
2	3185	624.933116570125	0.252496659071
2	3190	625.350522311629	0.252496659071
2	3199	626.832226021532	0.252496659071
2	3202	627.084722680603	0.401314482775
2	3205	627.337219339674	0.595743545486
2	3210	628.309646044839	0.252496659071
2	3217	629.027227580852	0.252496659071
2	3220	629.279724239923	0.393618283773
2	3227	630.111977330378	0.252496659071
2	3230	630.364473989449	0.442922848652
2	3235	631.546884307091	0.252496659071
2	3240	632.26617072501	0.252496659071
2	3245	632.536906748393	0.252496659071
2	3252	632.8900092732	0.252496659071
2	3255	633.142505932271	0.425444500492
2	3260	633.659359730881	0.252496659071
2	3265	635.140738682496	0.252496659071
2	3273	636.953445666037	0.252496659071
2	3276	637.205942325108	0.445085066635
2	3281	638.78961196131	0.252496659071
2	3286	640.679576752322	0.252496659071
2	3291	641.240357612073	0.252496659071
2	3296	642.181771343861	0.252496659071
2	3301	643.006497591598	0.252496659071
2	3308	643.291471502839	0.252496659071
2	3311	643.54396816191	0.285201025184
2	3318	646.713570530489	0.252496659071
2	3321	646.96606718956	0.439160793913
2	3326	647.530984191917	0.252496659071
2	3331	649.471200418772	0.252496659071
2	3336	654.704825967664	0.252496659071
2	3341	655.795282899674	0.252496659071
2	3346	658.64072981261	0.252496659071
2	3351	660.127172726697	0.252496659071
2	3356	660.669390158279	0.252496659071
2	3361	661.856378274548	0.252496659071
2	3366	662.874440705224	0.252496659071
2	3371	666.216317981359	0.252496659071
2	3376	666.738495946524	0.252496659071
2	3381	667.419834023777	0.252496659071
2	3386	668.4067862209	0.252496659071
2	3391	668.694405622273	0.252496659071
2	3398	669.069419657572	0.252496659071
2	3401	669.321916316643	0.360709515734
2	3406	670.155083845532	0.252496659071
2	3411	670.725607446018	0.252496659071
2	3416	670.997530575621	0.252496659071
2	3423	671.284866290523	0.252496659071
2	3426	671.537362949594	0.264121114674
2	3433	672.226731181289	0.252496659071
2	3436	672.47922784036	0.480616418946
2	3441	673.333707410128	0.252496659071
2	3448	674.626500881499	0.252496659071
2	3451	674.87899754057	0.474036105677
2	3456	675.242008839778	0.252496659071
2	3463	676.77847518203	0.252496659071
2	3466	677.030971841101	0.476137745668
2	3471	679.400697121211	0.252496659071
2	3476	680.124973635297	0.252496659071
2	3483	681.351172250739	0.252496659071
2	3486	681.60366890981	0.491209473818
2	3491	682.061385025143	0.252496659071
2	3496	684.553613042417	0.252496659071
2	3501	687.028244361604	0.252496659071
2	3506	688.415571473233	0.252496659071
2	3511	690.058700591633	0.252496659071
2	3516	692.545286860011	0.252496659071
2	3522	692.985811320493	0.268726141367
2	3527	695.634336548306	0.252496659071
2	3532	697.74944124547	0.252496659071
2	3537	699.416356714761	0.252496659071
2	3544	700.152877526805	0.252496659071
2	3547	700.405374185876	0.477134115845
2	3552	701.167841998211	0.252496659071
2	3557	703.143208468179	0.252496659071
2	3562	703.463457819404	0.252496659071
2	3569	704.586651786152	0.252496659071
2	3574	704.839148445223	0.369744748811
2	3577	705.091645104294	0.449891405506
2	3582	706.835032433948	0.252496659071
2	3587	708.724603396995	0.252496659071
2	3594	709.678044292751	0.252496659071
2	3601	709.930540951822	0.263011151799
2	3604	710.183037610893	0.385436439547
2	3607	710.435534269964	0.566993978868
2	3612	710.887821671489	0.252496659071
2	3617	711.297375834091	0.252496659071
2	3626	711.822661731058	0.252496659071
2	3629	712.075158390129	0.479056781709
2	3632	712.3276550492	0.679940309665
2	3637	712.858622315192	0.252496659071
2	3642	713.157683241125	0.252496659071
2	3649	713.651146628732	0.252496659071
2	3652	713.903643287803	0.292468628272
2	3659	714.477764946939	0.252496659071
2	3662	714.73026160601	0.370199738282
2	3671	718.079411716749	0.252496659071
2	3674	718.33190837582	0.473432995542
2	3677	718.584405034891	0.643422613021
2	3682	719.182233271052	0.252496659071
2	3687	720.236852151109	0.252496659071
2	3692	720.944932517325	0.252496659071
2	3697	722.075108174831	0.252496659071
2	3702	722.350930046502	0.252496659071
2	3709	726.491304501341	0.252496659071
2	3712	726.743801160412	0.417448969776
2	3717	727.011114902859	0.252496659071
2	3722	728.200478094258	0.252496659071
2	3729	728.458956449526	0.252496659071
2	3732	728.711453108597	0.261487966784
2	3737	729.777764864416	0.252496659071
2	3742	730.04811441192	0.252496659071
2	3747	731.659422584916	0.252496659071
2	3752	732.710804845764	0.252496659071
2	3759	733.19129056827	0.252496659071
2	3762	733.443787227341	0.444650395708
2	3769	733.895069809756	0.252496659071
2	3775	734.335594270238	0.625569183482
2	3778	734.588090929309	0.454533771918
2	3789	735.238487809583	0.252496659071
2	3792	735.490984468654	0.43937719519
2	3797	735.743481127725	0.691574038004
2	3803	735.995977786796	0.348381223344
2	3806	736.248474445867	0.324264361526
2	3811	737.28617379932	0.252496659071
2	3816	739.199772348266	0.252496659071
2	3821	741.112347774303	0.252496659071
2	3826	743.005669802039	0.252496659071
2	3831	743.863022638607	0.252496659071
2	3838	744.26271239893	0.252496659071
2	3841	744.515209058001	0.49930922958
2	3846	745.242903926139	0.252496659071
2	3851	745.963854275134	0.252496659071
2	3856	747.288078092671	0.252496659071
2	3861	747.805260431328	0.252496659071
2	3868	749.053163410953	0.252496659071
2	3871	749.305660070024	0.267103545017
2	3876	750.453487078902	0.252496659071
2	3881	751.104209208807	0.252496659071
2	3888	751.647031563353	0.252496659071
2	3891	751.899528222424	0.379292459536
2	3896	755.236387056446	0.252496659071
2	3903	757.798103071497	0.252496659071
2	3906	758.050599730568	0.265259003051
2	3911	760.013191942372	0.252496659071
2	3916	764.682310772296	0.252496659071
2	3921	766.167791814154	0.252496659071
2	3928	766.819001840402	0.252496659071
2	3933	767.071498499473	0.315166012017
2	3938	767.323995158544	0.494823862793
2	3941	767.576491817615	0.321782576502
2	3946	768.428605804325	0.252496659071
2	3953	768.934722463994	0.252496659071
2	3956	769.187219123065	0.407641872976
2	3961	769.986925292031	0.252496659071
2	3966	771.136506711256	0.252496659071
2	3971	771.974663915767	0.252496659071
2	3976	772.991677155159	0.252496659071
2	3981	773.824259494034	0.252496659071
2	3988	777.971178879984	0.252496659071
2	3991	778.223675539055	0.457047958164
2	3996	779.111098318225	0.252496659071
2	4001	779.814280479938	0.252496659071
2	4006	784.596811289699	0.252496659071
2	4011	786.742026252704	0.252496659071
2	4018	787.235005634958	0.252496659071
2	4021	787.487502294029	0.313550993353
2	4027	788.580809160689	0.252496659071
2	4032	789.718966808128	0.252496659071
2	4037	791.16943255344	0.252496659071
2	4042	794.232312843789	0.252496659071
2	4047	794.6436922317	0.252496659071
2	4052	795.56255528371	0.252496659071
2	4057	795.908448020975	0.252496659071
2	4064	796.633397627189	0.252496659071
2	4067	796.88589428626	0.504018590662
2	4072	797.601023564428	0.252496659071
2	4077	798.100327524156	0.252496659071
2	4082	798.495416985724	0.252496659071
2	4087	798.806321516967	0.252496659071
2	4092	800.383219930668	0.252496659071
2	4097	801.18132454387	0.252496659071
2	4102	802.284190380335	0.252496659071
2	4107	802.5744838835	0.252496659071
2	4112	804.037459441695	0.252496659071
2	4117	805.043137753647	0.252496659071
2	4122	806.448130736483	0.252496659071
2	4127	806.867448905682	0.252496659071
2	4134	808.907286094811	0.252496659071
2	4137	809.159782753882	0.320736454592
2	4142	810.650161081038	0.252496659071
2	4147	811.028009479224	0.252496659071
2	4154	811.839199744676	0.252496659071
2	4157	812.091696403747	0.267900328122
2	4164	813.101838184161	0.252496659071
2	4167	813.354334843232	0.436200455798
2	4172	814.534015707904	0.252496659071
2	4177	816.803829964287	0.252496659071
2	4182	819.678296359494	0.252496659071
2	4187	820.489621609935	0.252496659071
2	4192	821.445680591306	0.252496659071
2	4199	821.87540111995	0.252496659071
2	4204	822.127897779021	0.302432195481
2	4207	822.380394438092	0.476056680331
2	4212	824.35856925236	0.252496659071
2	4217	825.200043439578	0.252496659071
2	4222	825.558887711628	0.252496659071
2	4227	826.152539074138	0.252496659071
2	4234	826.95260013092	0.252496659071
2	4237	827.205096789991	0.466938402386
2	4242	827.694815979065	0.252496659071
2	4249	829.298210160895	0.252496659071
2	4252	829.550706819966	0.417565381341
2	4257	831.129785149126	0.252496659071
2	4262	832.04345698391	0.252496659071
2	4267	834.677372657529	0.252496659071
2	4272	835.247068409407	0.252496659071
2	4278	837.406553156242	0.252496659071
2	4285	837.955603805388	0.252496659071
2	4290	838.208100464459	0.405976304823
2	4295	838.46059712353	0.45646298827
2	4298	838.713093782601	0.401494936463
2	4303	839.327948032307	0.252496659071
2	4308	839.968870404074	0.252496659071
2	4313	840.589982508458	0.252496659071
2	4318	840.909143005163	0.252496659071
2	4323	841.279242834588	0.252496659071
2	4328	842.099892726696	0.252496659071
2	4333	842.686260675558	0.252496659071
2	4338	844.730903436647	0.252496659071
2	4345	845.13575771843	0.252496659071
2	4348	845.388254377501	0.485632229173
2	4353	846.304259627004	0.252496659071
2	4358	848.832357988612	0.252496659071
2	4363	853.881836926953	0.252496659071
2	4368	857.550285829102	0.252496659071
2	4373	858.423314364263	0.252496659071
2	4378	858.773667436855	0.252496659071
2	4383	859.343452624456	0.252496659071
2	4388	861.328197096597	0.252496659071
2	4395	862.57496994176	0.252496659071
2	4398	862.827466600831	0.267165640844
2	4403	863.874973318376	0.252496659071
2	4410	865.156372466117	0.252496659071
2	4413	865.408869125188	0.488519331202
2	4418	865.833337540503	0.252496659071
2	4425	866.309906896741	0.252496659071
2	4428	866.562403555812	0.364011755473
2	4433	867.706967622214	0.252496659071
2	4440	868.370751812389	0.252496659071
2	4443	868.62324847146	0.407380065849
2	4448	870.222337465595	0.252496659071
2	4453	871.676492562748	0.252496659071
2	4460	873.313077922118	0.252496659071
2	4463	873.565574581189	0.35329140036
2	4470	873.994964764752	0.252496659071
2	4473	874.247461423823	0.282327073647
2	4480	877.05986985209	0.252496659071
2	4483	877.312366511161	0.415144807132
2	4490	878.727405737401	0.252496659071
2	4493	878.979902396472	0.399035118024
2	4498	880.685186905904	0.252496659071
2	4503	880.938618234642	0.252496659071
2	4508	881.411945706422	0.252496659071
2	4513	882.390873671813	0.252496659071
2	4520	884.04850390148	0.252496659071
2	4525	884.301000560551	0.379383429465
2	4529	884.741525021033	0.453597342968
2	4534	887.775915457966	0.252496659071
2	4543	888.734643358305	0.252496659071
2	4546	888.987140017376	0.374012011331
2	4549	889.239636676447	0.611712236471
2	4554	889.757418827102	0.252496659071
2	4559	891.840738874323	0.252496659071
2	4566	892.487766039756	0.252496659071
2	4569	892.740262698827	0.453502684676
2	4576	894.525466134916	0.252496659071
2	4579	894.777962793987	0.47392239052
2	4584	897.428699061667	0.252496659071
2	4589	902.113354573504	0.252496659071
2	4594	902.848998929222	0.252496659071
2	4599	903.828325789194	0.252496659071
2	4606	904.980021275791	0.252496659071
2	4609	905.232517934862	0.428256101231
2	4614	906.11607549956	0.252496659071
2	4621	907.773373224979	0.252496659071
2	4624	908.02586988405	0.452092308911
2	4631	909.540978617735	0.252496659071
2	4634	909.793475276806	0.380361968304
2	4641	912.218729994079	0.252496659071
2	4644	912.47122665315	0.487599222212
2	4649	913.852971195989	0.252496659071
2	4654	915.7120081538	0.252496659071
2	4659	916.305591700948	0.252496659071
2	4666	918.223210927951	0.252496659071
2	4669	918.475707587022	0.341684674027
2	4676	918.825612031992	0.252496659071
2	4679	919.078108691063	0.395367405657
2	4684	920.578107350787	0.252496659071
2	4689	921.527921836502	0.252496659071
2	4694	922.13062961143	0.252496659071
2	4701	927.260968521803	0.252496659071
2	4704	927.513465180874	0.462938362915
2	4709	928.856510817546	0.252496659071
2	4714	929.983045554767	0.252496659071
2	4721	930.5586752906	0.252496659071
2	4724	930.811171949671	0.295232297759
2	4729	931.546918247973	0.252496659071
2	4734	934.823745156065	0.252496659071
2	4739	935.57870517284	0.252496659071
2	4748	935.977070184686	0.252496659071
2	4751	936.229566843757	0.30334298663
2	4754	936.482063502828	0.506869873989
2	4759	937.089652717615	0.252496659071
2	4766	937.873360463635	0.252496659071
2	4769	938.125857122706	0.326528440512
2	4774	938.611277648653	0.252496659071
2	4780	939.331299006827	0.252496659071
2	4785	939.879948841133	0.252496659071
2	4790	940.279535069049	0.252496659071
2	4795	943.065825815329	0.252496659071
2	4802	943.633900016311	0.252496659071
2	4805	943.886396675382	0.473235016464
2	4810	945.07135829489	0.252496659071
2	4815	946.297007204757	0.252496659071
2	4820	947.172387297169	0.252496659071
2	4825	948.434979394316	0.252496659071
2	4830	952.560042008492	0.252496659071
2	4837	952.889671341828	0.252496659071
2	4840	953.142168000899	0.415017146192
2	4845	956.515049481382	0.252496659071
2	4852	956.801160178901	0.252496659071
2	4855	957.053656837972	0.458846159714
2	4860	957.315207736363	0.252496659071
2	4865	958.439002322727	0.252496659071
2	4870	959.784309871927	0.252496659071
2	4875	960.379477069356	0.252496659071
2	4880	961.087716041728	0.252496659071
2	4885	961.476134538493	0.252496659071
2	4890	963.93902672691	0.252496659071
2	4895	964.230119573516	0.252496659071
2	4900	965.247086782618	0.252496659071
2	4905	966.643193462585	0.252496659071
2	4910	968.123828445993	0.252496659071
2	4915	970.01053214519	0.252496659071
2	4920	971.272462137073	0.252496659071
2	4925	973.235221446192	0.252496659071
2	4930	973.617775832962	0.252496659071
2	4935	975.875391300216	0.252496659071
2	4940	977.332929915669	0.252496659071
2	4945	979.245726828796	0.252496659071
2	4950	980.4788184573	0.252496659071
2	4955	980.920526410725	0.252496659071
2	4960	981.973990582158	0.252496659071
2	4967	982.975362041391	0.252496659071
2	4970	983.227858700462	0.298312233059
2	4977	985.269559151527	0.252496659071
2	4980	985.522055810598	0.344144177734
2	4985	985.908416165428	0.252496659071
2	4990	987.368601561757	0.252496659071
2	4995	988.891486667927	0.252496659071
2	5000	990.087857243437	0.252496659071
2	5005	991.450770152607	0.252496659071
2	5010	991.759900416984	0.252496659071
2	5015	992.10392365804	0.252496659071
2	5022	993.623644947329	0.252496659071
2	5025	993.8761416064	0.290255911092
2	5031	994.346346419877	0.252496659071
2	5036	995.076476810664	0.252496659071
2	5041	997.059814611535	0.252496659071
2	5046	997.944269619312	0.252496659071
3	9	0.964520892925	0
3	12	1.217017551996	0.168723690448
3	15	1.469514211067	0.33100903772
3	20	2.215113549907	0
3	25	4.82123435228	0
3	30	6.932799745051	0
3	35	7.829214303968	0
3	42	8.81490716525	0
3	45	9.067403824321	0.226388457128
3	50	11.391208083873	0
3	55	11.692245200613	0
3	60	11.979509547907	0
3	65	12.956293790867	0
3	70	13.81112190996	0
3	75	14.223220366601	0
3	80	16.220789062831	0
3	85	17.13855964569	0
3	90	18.835788529772	0
3	97	20.632121347288	0
3	100	20.884618006359	0.25055302697
3	105	21.748093345315	0
3	110	22.924019867829	0
3	115	23.72827829191	0
3	120	24.529869958712	0
3	125	25.003647034754	0
3	130	25.371340694909	0
3	137	27.474087261123	0
3	140	27.726583920194	0.082642503014
3	147	28.102644973683	0
3	152	28.355141632754	0.106326956182
3	157	28.607638291825	0.0526703398
3	160	28.860134950896	0.080758810386
3	167	29.570244842182	0
3	170	29.822741501253	0.208955492581
3	175	31.550379312302	0
3	180	31.854072003117	0
3	185	35.500911763279	0
3	190	36.061276493123	0
3	195	36.513221083502	0
3	200	39.737095336432	0
3	207	43.207356597033	0
3	210	43.459853256104	0.108410951879
3	215	46.462700884608	0
3	220	50.337390849326	0
3	225	52.083985023971	0
3	230	53.198072458663	0
3	235	53.850144451343	0
3	240	54.512692717901	0
3	247	55.739397236569	0
3	252	55.99189389564	0.176873202591
3	256	56.432418356122	0.388886305959
3	261	57.192622774539	0
3	266	60.513733330028	0
3	271	64.253647510935	0
3	276	66.062961932926	0
3	281	66.546918703129	0
3	288	66.985493872868	0
3	291	67.237990531939	0.209402088953
3	296	68.19265887525	0
3	301	68.602313548677	0
3	306	71.618151740851	0
3	311	72.060223752287	0
3	316	73.046523939827	0
3	323	75.302422338434	0
3	328	75.554918997505	0.177782922151
3	331	75.807415656576	0.16193472915
3	336	76.092716275363	0
3	343	78.095889205493	0
3	346	78.348385864564	0.122101782883
3	353	80.680604641988	0
3	358	80.933101301059	0.174017548465
3	361	81.18559796013	0.068262973091
3	366	81.564521545008	0
3	371	81.839741384325	0
3	376	82.530098088573	0
3	381	83.979884943992	0
3	388	85.376114374107	0
3	391	85.628611033178	0.08745626077
3	396	86.500877853365	0
3	401	87.552447469303	0
3	406	88.227170341929	0
3	411	89.457581491695	0
3	416	89.921627873247	0
3	421	90.247992286688	0
3	426	90.912312110383	0
3	431	92.587522855814	0
3	436	95.631441342133	0
3	443	96.79957303012	0
3	446	97.052069689191	0.238353131786
3	455	99.973708970055	0
3	458	100.226205629126	0.066986975983
3	461	100.478702288197	0.273680432578
3	468	101.902441221189	0
3	471	102.15493788026	0.246038764486
3	476	102.558968051476	0
3	481	104.612151126175	0
3	486	106.416569977466	0
3	493	108.482888498869	0
3	496	108.73538515794	0.072791725497
3	501	109.76610744649	0
3	507	114.081155452457	0
3	516	114.384966340678	0
3	519	114.637462999749	0.238316369385
3	522	114.88995965882	0.440076516259
3	529	115.251024565492	0
3	534	115.503521224563	0.184747653457
3	539	115.756017883634	0.038062655341
3	544	116.008514542705	0.008308931758
3	547	116.261011201776	0.027783996008
3	552	117.643401247111	0
3	557	118.935390938705	0
3	562	121.017328650627	0
3	567	121.322300675628	0
3	574	121.601434445242	0
3	577	121.853931104313	0.095108266815
3	586	122.380455642624	0
3	589	122.632952301695	0.14371721775
3	592	122.885448960766	0.319417435917
3	597	123.199339385033	0
3	602	125.942794761034	0
3	607	127.732425997912	0
3	612	128.987851160676	0
3	617	131.309056480744	0
3	624	131.974273947485	0
3	629	132.226770606556	0.230906609969
3	632	132.479267265627	0.031227475511
3	637	133.271432707168	0
3	642	135.81403262839	0
3	647	136.684838636778	0
3	652	137.176125367426	0
3	659	138.084201448708	0
3	662	138.336698107779	0.180691309749
3	667	142.534266022031	0
3	674	146.37319131526	0
3	677	146.625687974331	0.133041641476
3	682	147.32742429534	0
3	687	151.606818948582	0
3	696	151.952642937878	0
3	699	152.205139596949	0.095102207117
3	702	152.45763625602	0.323044258548
3	707	154.270737611563	0
3	712	156.804231481356	0
3	717	157.297844678065	0
3	722	158.67445723937	0
3	729	159.209304795749	0
3	732	159.46180145482	0.112126172806
3	737	160.152362848847	0
3	744	161.777544935762	0
3	747	162.030041594833	0.226160145208
3	752	164.961461422256	0
3	758	166.725840322111	0
3	763	167.345278963396	0
3	770	169.566734367842	0
3	773	169.819231026913	0.145073194838
3	778	170.085712689373	0
3	783	171.702399182445	0
3	788	172.184486423043	0
3	793	173.391270659908	0
3	798	173.730013836885	0
3	805	175.108875129089	0
3	808	175.36137178816	0.194444393715
3	813	175.660174295764	0
3	818	176.557070018506	0
3	823	178.986207888252	0
3	828	180.95461643098	0
3	833	181.815185724259	0
3	838	182.390256937444	0
3	843	182.822529233999	0
3	848	184.861621260761	0
3	855	185.157479573372	0
3	858	185.409976232443	0.113745781366
3	863	186.584054620807	0
3	870	187.423211140355	0
3	873	187.675707799426	0.126679429672
3	880	189.398260184097	0
3	883	189.650756843168	0.178373742732
3	888	191.386051940452	0
3	893	192.910343093271	0
3	898	193.960110273642	0
3	903	195.795734952128	0
3	908	196.773784226134	0
3	913	197.636116661691	0
3	918	198.000298281249	0
3	923	199.450841348119	0
3	930	199.731829743615	0
3	935	199.984326402686	0.006818185305
3	938	200.236823061757	0.045720057349
3	943	200.496451787826	0
3	952	201.153036439444	0
3	957	201.405533098515	0.073348698842
3	960	201.658029757586	0.266970104116
3	965	201.910526416657	0.305740320373
3	968	202.163023075728	0.07801243215
3	973	203.69823891656	0
3	978	204.259300272689	0
3	983	204.981770654663	0
3	988	210.99501278675	0
3	995	213.743249465546	0
3	998	213.995746124617	0.036068049379
3	1003	214.787901724673	0
3	1011	215.656401408789	0
3	1016	215.90889806786	0.080298130108
3	1021	216.161394726931	0.170691880499
3	1024	216.413891386002	0.017821060617
3	1029	217.569621878447	0
3	1034	218.372901691416	0
3	1039	220.096135111411	0
3	1044	220.607172413673	0
3	1049	224.614587833646	0
3	1054	227.697870101643	0
3	1061	228.20657699904	0
3	1064	228.459073658111	0.067502706928
3	1069	231.7851804434	0
3	1074	232.906792742173	0
3	1079	233.867985939807	0
3	1084	234.589229611641	0
3	1089	235.197208850951	0
3	1094	236.276351040615	0
3	1101	237.976996883292	0
3	1104	238.229493542363	0.049297480767
3	1109	238.761165079089	0
3	1114	239.268400960075	0
3	1119	240.292213272093	0
3	1124	240.655136507853	0
3	1129	242.673570532422	0
3	1134	243.293545934325	0
3	1139	244.257943844921	0
3	1144	246.063234041929	0
3	1149	246.620941190141	0
3	1154	246.930474498532	0
3	1161	250.078697430046	0
3	1166	250.331194089117	0.152091803161
3	1169	250.583690748188	0.033357240016
3	1174	251.568564690624	0
3	1179	252.189572345984	0
3	1184	252.586186899561	0
3	1189	254.026833003493	0
3	1194	254.450012303418	0
3	1199	255.669335071735	0
3	1204	257.374820262828	0
3	1209	259.640962595889	0
3	1220	262.110832642168	0
3	1223	262.363329301239	0.099790311038
3	1226	262.61582596031	0.324271307982
3	1232	263.127959266743	0
3	1237	263.809617952669	0
3	1244	265.804786283849	0
3	1247	266.05728294292	0.093950941309
3	1252	266.594758140785	0
3	1257	267.114811594026	0
3	1263	269.458461272996	0
3	1268	271.247310422685	0
3	1275	271.568979075875	0
3	1278	271.821475734946	0.080993360829
3	1285	272.287646262409	0
3	1290	272.54014292148	0.208192281617
3	1293	272.792639580551	0.167301298505
3	1302	273.497780246208	0
3	1307	273.750276905279	0.185242722338
3	1312	274.00277356435	0.422782346804
3	1315	274.255270223421	0.423935469182
3	1320	274.507766882492	0.404628568605
3	1323	274.760263541563	0.044721095325
3	1328	275.919991924089	0
3	1333	276.450161300145	0
3	1338	279.183174460352	0
3	1343	279.445500735263	0
3	1348	281.560245073177	0
3	1353	281.947940949614	0
3	1358	284.408305997495	0
3	1363	287.270740591098	0
3	1368	287.954823136852	0
3	1373	288.986399336185	0
3	1378	289.262610463781	0
3	1383	289.660946783176	0
3	1388	290.484979025806	0
3	1393	291.030624055241	0
3	1398	291.552011757731	0
3	1403	292.954646447542	0
3	1408	294.171391049806	0
3	1413	295.936319418046	0
3	1418	297.129072043466	0
3	1425	298.773246714164	0
3	1430	299.025743373235	0.006176879407
3	1433	299.278240032306	0.079910405674
3	1440	302.688363287248	0
3	1445	302.940859946319	0.187598081431
3	1448	303.19335660539	0.170157556419
3	1453	304.042440992671	0
3	1458	304.483155543845	0
3	1463	305.594999147077	0
3	1468	306.057041933282	0
3	1477	306.570936210386	0
3	1480	306.823432869457	0.042605228561
3	1485	307.075929528528	0.288789380987
3	1488	307.328426187599	0.101372815759
3	1493	308.262727691294	0
3	1500	309.294154397414	0
3	1503	309.546651056485	0.067510217852
3	1508	309.828686896483	0
3	1516	310.553749376045	0
3	1519	310.806246035116	0.09140873511
3	1524	312.175519658998	0
3	1529	313.401516186151	0
3	1536	314.486911298109	0
3	1539	314.73940795718	0.082946822717
3	1544	317.409810707246	0
3	1551	320.205710509286	0
3	1554	320.458207168357	0.162257887682
3	1561	321.416434129273	0
3	1564	321.668930788344	0.094989593487
3	1571	322.212492026432	0
3	1576	322.464988685503	0.100840461247
3	1583	322.717485344574	0.165551409426
3	1586	322.969982003645	0.245848145556
3	1589	323.222478662716	0.447851451377
3	1594	323.881825016447	0
3	1599	324.597230502563	0
3	1604	325.271976274156	0
3	1609	327.236876880213	0
3	1614	327.726229764985	0
3	1621	328.089063338973	0
3	1624	328.341559998044	0.059896933834
3	1629	329.697315155044	0
3	1634	330.826869118278	0
3	1639	331.562108437546	0
3	1644	334.39718950586	0
3	1651	337.206748508318	0
3	1654	337.459245167389	0.221567559986
3	1659	337.732098749332	0
3	1664	338.418335728462	0
3	1673	339.035017219969	0
3	1676	339.28751387904	0.175263252217
3	1679	339.540010538111	0.262673700956
3	1684	342.438274693674	0
3	1689	343.940861961019	0
3	1694	347.12262431838	0
3	1699	347.71811949551	0
3	1704	348.371091676602	0
3	1711	348.874886421225	0
3	1714	349.127383080296	0.236444389318
3	1719	349.623652753462	0
3	1726	349.896195920249	0
3	1729	350.14869257932	0.041167773823
3	1734	351.025300814363	0
3	1739	351.749481536103	0
3	1744	352.101875794957	0
3	1751	354.698857118182	0
3	1754	354.951353777253	0.115608871011
3	1759	355.459632500295	0
3	1767	356.058517554201	0
3	1770	356.311014213272	0.208907443194
3	1779	356.7738045586	0
3	1782	357.026301217671	0.24438233782
3	1785	357.278797876742	0.448081778499
3	1790	357.74101738583	0
3	1795	359.254929725816	0
3	1800	360.774126406753	0
3	1805	365.106513052	0
3	1810	365.506642830907	0
3	1815	366.610810505708	0
3	1822	366.874215997055	0
3	1825	367.126712656126	0.053017063948
3	1830	367.501387425487	0
3	1835	367.907600717597	0
3	1840	368.247358549623	0
3	1845	368.542938198936	0
3	1850	370.180898462318	0
3	1855	371.436846425467	0
3	1862	373.07394910209	0
3	1865	373.326445761161	0.199195773586
3	1870	374.384732397482	0
3	1875	376.598257333715	0
3	1880	377.329047774178	0
3	1885	378.370998287811	0
3	1890	378.680376798303	0
3	1895	379.255924552716	0
3	1900	380.495457330673	0
3	1905	381.261011878268	0
3	1910	382.136795674305	0
3	1915	385.409887029077	0
3	1922	386.918862081134	0
3	1925	387.171358740205	0.042206455086
3	1930	388.29229874305	0
3	1937	388.861664290682	0
3	1940	389.114160949753	0.195284775696
3	1945	389.746576310794	0
3	1950	392.953425152346	0
3	1957	393.277052026953	0
3	1962	393.529548686024	0.242732086693
3	1967	393.782045345095	0.036928393953
3	1970	394.034542004166	0.094221737615
3	1977	394.789757323879	0
3	1982	395.04225398295	0.234845001627
3	1985	395.294750642021	0.002692615932
3	1992	397.599842338193	0
3	1995	397.852338997264	0.084428381218
3	2000	398.989106584919	0
3	2007	399.310746591813	0
3	2010	399.563243250884	0.162015690408
3	2016	402.178287758222	0
3	2021	403.241390720084	0
3	2026	403.644580241655	0
3	2033	405.613498248252	0
3	2036	405.865994907323	0.095619082436
3	2043	406.456490967148	0
3	2046	406.708987626219	0.137239242226
3	2051	407.632776907395	0
3	2056	409.058065155917	0
3	2061	409.655336157759	0
3	2068	411.57339020954	0
3	2073	411.825886868611	0.137037313134
3	2076	412.078383527682	0.171743741654
3	2081	412.888952689781	0
3	2088	413.193398913343	0
3	2091	413.445895572414	0.0040034018
3	2096	415.2114147085	0
3	2101	416.592708331327	0
3	2108	417.037026047048	0
3	2111	417.289522706119	0.016676565547
3	2116	420.316698661432	0
3	2121	420.844470022192	0
3	2128	422.619087241662	0
3	2131	422.871583900733	0.205863822199
3	2136	424.530296434298	0
3	2141	424.94790582213	0
3	2146	426.030786649841	0
3	2151	426.634339956455	0
3	2156	426.934591950495	0
3	2161	427.603791848853	0
3	2166	427.944917816006	0
3	2171	428.357809813067	0
3	2178	429.727032652478	0
3	2181	429.979529311549	0.012378056049
3	2186	431.073090706724	0
3	2191	431.756499092985	0
3	2196	432.062292404398	0
3	2201	432.488086496269	0
3	2206	435.2740754516	0
3	2211	436.933338396866	0
3	2216	437.238214653204	0
3	2221	438.265904846446	0
3	2226	438.793170079086	0
3	2233	440.005018799534	0
3	2236	440.257515458605	0.114143663201
3	2241	441.783868659753	0
3	2248	442.695163809957	0
3	2251	442.947660469028	0.081861207887
3	2258	443.620530170048	0
3	2261	443.873026829119	0.069719602955
3	2269	445.535044788884	0
3	2272	445.787541447955	0.114202867015
3	2277	447.123466064581	0
3	2284	448.803056942402	0
3	2287	449.055553601473	0.180017016077
3	2292	450.257147362713	0
3	2297	452.701615028215	0
3	2304	453.032471980525	0
3	2307	453.284968639596	0.136450202486
3	2312	455.987632240697	0
3	2317	456.299425204627	0
3	2322	457.115581811466	0
3	2327	458.41911860169	0
3	2334	458.76126046656	0
3	2337	459.013757125631	0.091055790011
3	2342	460.017427403285	0
3	2347	461.366758815364	0
3	2352	461.984207484346	0
3	2357	462.366733190133	0
3	2366	463.435440314589	0
3	2369	463.68793697366	0.160169374041
3	2372	463.940433632731	0.361544448296
3	2377	465.162953116315	0
3	2382	465.92273120482	0
3	2387	466.594116886425	0
3	2392	468.697242669553	0
3	2397	470.039918689094	0
3	2402	470.42365359703	0
3	2407	472.440672927003	0
3	2412	473.066719666548	0
3	2417	474.451113952186	0
3	2422	476.584377457717	0
3	2427	478.670957504061	0
3	2432	478.932838943665	0
3	2437	479.332204069268	0
3	2442	481.491952313566	0
3	2447	484.351009411567	0
3	2452	485.222904356574	0
3	2457	487.135818862818	0
3	2462	488.615858883143	0
3	2469	489.594360515414	0
3	2474	489.846857174485	0.078799599097
3	2477	490.099353833556	0.145551368739
3	2482	490.448716929851	0
3	2489	492.625603520712	0
3	2492	492.878100179783	0.006208099947
3	2497	496.143143517277	0
3	2504	496.675072403556	0
3	2509	496.927569062627	0.040358022647
3	2512	497.180065721698	0.222435607482
3	2518	497.62059018218	0.018921148129
3	2523	498.341994648408	0
3	2528	498.84499266528	0
3	2535	500.909707121197	0
3	2538	501.162203780268	0.034260191465
3	2545	502.481992552022	0
3	2548	502.734489211093	0.020433188604
3	2553	503.238399330581	0
3	2558	504.153756028589	0
3	2565	504.502438518653	0
3	2568	504.754935177724	0.163855679717
3	2573	507.933130530995	0
3	2578	508.451850515853	0
3	2583	510.125442187308	0
3	2588	512.103247742083	0
3	2595	512.79069341833	0
3	2598	513.043190077401	0.009535577495
3	2605	514.878460992462	0
3	2608	515.130957651533	0.147760209147
3	2613	517.053970964041	0
3	2620	517.311992881701	0
3	2623	517.564489540772	0.244584978274
3	2628	518.003386680793	0
3	2635	518.431386977174	0
3	2638	518.683883636245	0.030970815604
3	2643	518.992938358015	0
3	2650	519.506023655891	0
3	2653	519.758520314962	0.062330344588
3	2658	522.033406308975	0
3	2663	523.218802229377	0
3	2668	524.00261386535	0
3	2673	524.308449079572	0
3	2678	528.253918207919	0
3	2683	530.020414784488	0
3	2688	530.291291989633	0
3	2695	531.792611996557	0
3	2698	532.045108655628	0.079436722689
3	2703	532.584010787402	0
3	2710	533.447451554951	0
3	2713	533.699948214022	0.183159102014
3	2718	536.297511827038	0
3	2723	536.5665393921	0
3	2730	537.736756646793	0
3	2733	537.989253305864	0.173351735473
3	2738	540.253272376982	0
3	2743	541.800955186423	0
3	2748	542.456440217721	0
3	2753	543.646826833881	0
3	2758	544.355501276339	0
3	2763	545.078793736289	0
3	2771	545.519318196771	0.10037377364
3	2774	545.771814855842	0.350917679412
3	2779	546.047737185902	0
3	2786	546.839904764303	0
3	2789	547.092401423374	0.054345424237
3	2794	547.380825901398	0
3	2799	549.757653958828	0
3	2804	550.039300787938	0
3	2811	551.558417096858	0
3	2814	551.810913755929	0.200571647069
3	2819	553.216519101544	0
3	2824	554.10930985788	0
3	2829	554.50087492612	0
[...]
8	1166	250.331194089117	0
8	1169	250.583690748188	0
8	1174	251.568564690624	0
8	1179	252.189572345984	0
8	1184	252.586186899561	0
8	1189	254.026833003493	0
8	1194	254.450012303418	0
8	1199	255.669335071735	0
8	1204	257.374820262828	0
8	1209	259.640962595889	0
8	1220	262.110832642168	0
8	1223	262.363329301239	0
8	1226	262.61582596031	0
8	1232	263.127959266743	0
8	1237	263.809617952669	0
8	1244	265.804786283849	0
8	1247	266.05728294292	0
8	1252	266.594758140785	0
8	1257	267.114811594026	0
8	1263	269.458461272996	0
8	1268	271.247310422685	0
8	1275	271.568979075875	0
8	1278	271.821475734946	0
8	1285	272.287646262409	0
8	1290	272.54014292148	0
8	1293	272.792639580551	0
8	1302	273.497780246208	0
8	1307	273.750276905279	0
8	1312	274.00277356435	0
8	1315	274.255270223421	0
8	1320	274.507766882492	0
8	1323	274.760263541563	0
8	1328	275.919991924089	0
8	1333	276.450161300145	0
8	1338	279.183174460352	0
8	1343	279.445500735263	0
8	1348	281.560245073177	0
8	1353	281.947940949614	0
8	1358	284.408305997495	0
8	1363	287.270740591098	0
8	1368	287.954823136852	0
8	1373	288.986399336185	0
8	1378	289.262610463781	0
8	1383	289.660946783176	0
8	1388	290.484979025806	0
8	1393	291.030624055241	0
8	1398	291.552011757731	0
8	1403	292.954646447542	0
8	1408	294.171391049806	0
8	1413	295.936319418046	0
8	1418	297.129072043466	0
8	1425	298.773246714164	0
8	1430	299.025743373235	0
8	1433	299.278240032306	0
8	1440	302.688363287248	0
8	1445	302.940859946319	0
8	1448	303.19335660539	0
8	1453	304.042440992671	0
8	1458	304.483155543845	0
8	1463	305.594999147077	0
8	1468	306.057041933282	0
8	1477	306.570936210386	0
8	1480	306.823432869457	0
8	1485	307.075929528528	0
8	1488	307.328426187599	0
8	1493	308.262727691294	0
8	1500	309.294154397414	0
8	1503	309.546651056485	0
8	1508	309.828686896483	0
8	1516	310.553749376045	0
8	1519	310.806246035116	0
8	1524	312.175519658998	0
8	1529	313.401516186151	0
8	1536	314.486911298109	0
8	1539	314.73940795718	0
8	1544	317.409810707246	0
8	1551	320.205710509286	0
8	1554	320.458207168357	0
8	1561	321.416434129273	0
8	1564	321.668930788344	0
8	1571	322.212492026432	0
8	1576	322.464988685503	0
8	1583	322.717485344574	0
8	1586	322.969982003645	0
8	1589	323.222478662716	0
8	1594	323.881825016447	0
8	1599	324.597230502563	0
8	1604	325.271976274156	0
8	1609	327.236876880213	0
8	1614	327.726229764985	0
8	1621	328.089063338973	0
8	1624	328.341559998044	0
8	1629	329.697315155044	0
8	1634	330.826869118278	0
8	1639	331.562108437546	0
8	1644	334.39718950586	0
8	1651	337.206748508318	0
8	1654	337.459245167389	0
8	1659	337.732098749332	0
8	1664	338.418335728462	0
8	1673	339.035017219969	0
8	1676	339.28751387904	0
8	1679	339.540010538111	0
8	1684	342.438274693674	0
8	1689	343.940861961019	0
8	1694	347.12262431838	0
8	1699	347.71811949551	0
8	1704	348.371091676602	0
8	1711	348.874886421225	0
8	1714	349.127383080296	0
8	1719	349.623652753462	0
8	1726	349.896195920249	0
8	1729	350.14869257932	0
8	1734	351.025300814363	0
8	1739	351.749481536103	0
8	1744	352.101875794957	0
8	1751	354.698857118182	0
8	1754	354.951353777253	0
8	1759	355.459632500295	0
8	1767	356.058517554201	0
8	1770	356.311014213272	0
8	1779	356.7738045586	0
8	1782	357.026301217671	0
8	1785	357.278797876742	0
8	1790	357.74101738583	0
8	1795	359.254929725816	0
8	1800	360.774126406753	0
8	1805	365.106513052	0
8	1810	365.506642830907	0
8	1815	366.610810505708	0
8	1822	366.874215997055	0
8	1825	367.126712656126	0
8	1830	367.501387425487	0
8	1835	367.907600717597	0
8	1840	368.247358549623	0
8	1845	368.542938198936	0
8	1850	370.180898462318	0
8	1855	371.436846425467	0
8	1862	373.07394910209	0
8	1865	373.326445761161	0
8	1870	374.384732397482	0
8	1875	376.598257333715	0
8	1880	377.329047774178	0
8	1885	378.370998287811	0
8	1890	378.680376798303	0
8	1895	379.255924552716	0
8	1900	380.495457330673	0
8	1905	381.261011878268	0
8	1910	382.136795674305	0
8	1915	385.409887029077	0
8	1922	386.918862081134	0
8	1925	387.171358740205	0
8	1930	388.29229874305	0
8	1937	388.861664290682	0
8	1940	389.114160949753	0
8	1945	389.746576310794	0
8	1950	392.953425152346	0
8	1957	393.277052026953	0
8	1962	393.529548686024	0
8	1967	393.782045345095	0
8	1970	394.034542004166	0
8	1977	394.789757323879	0
8	1982	395.04225398295	0
8	1985	395.294750642021	0
8	1992	397.599842338193	0
8	1995	397.852338997264	0
8	2000	398.989106584919	0
8	2007	399.310746591813	0
8	2010	399.563243250884	0
8	2016	402.178287758222	0
8	2021	403.241390720084	0
8	2026	403.644580241655	0
8	2033	405.613498248252	0
8	2036	405.865994907323	0
8	2043	406.456490967148	0
8	2046	406.708987626219	0
8	2051	407.632776907395	0
8	2056	409.058065155917	0
8	2061	409.655336157759	0
8	2068	411.57339020954	0
8	2073	411.825886868611	0
8	2076	412.078383527682	0
8	2081	412.888952689781	0
8	2088	413.193398913343	0
8	2091	413.445895572414	0
8	2096	415.2114147085	0
8	2101	416.592708331327	0
8	2108	417.037026047048	0
8	2111	417.289522706119	0
8	2116	420.316698661432	0
8	2121	420.844470022192	0
8	2128	422.619087241662	0
8	2131	422.871583900733	0
8	2136	424.530296434298	0
8	2141	424.94790582213	0
8	2146	426.030786649841	0
8	2151	426.634339956455	0
8	2156	426.934591950495	0
8	2161	427.603791848853	0
8	2166	427.944917816006	0
8	2171	428.357809813067	0
8	2178	429.727032652478	0
8	2181	429.979529311549	0
8	2186	431.073090706724	0
8	2191	431.756499092985	0
8	2196	432.062292404398	0
8	2201	432.488086496269	0
8	2206	435.2740754516	0
8	2211	436.933338396866	0
8	2216	437.238214653204	0
8	2221	438.265904846446	0
8	2226	438.793170079086	0
8	2233	440.005018799534	0
8	2236	440.257515458605	0
8	2241	441.783868659753	0
8	2248	442.695163809957	0
8	2251	442.947660469028	0
8	2258	443.620530170048	0
8	2261	443.873026829119	0
8	2269	445.535044788884	0
8	2272	445.787541447955	0
8	2277	447.123466064581	0
8	2284	448.803056942402	0
8	2287	449.055553601473	0
8	2292	450.257147362713	0
8	2297	452.701615028215	0
8	2304	453.032471980525	0
8	2307	453.284968639596	0
8	2312	455.987632240697	0
8	2317	456.299425204627	0
8	2322	457.115581811466	0
8	2327	458.41911860169	0
8	2334	458.76126046656	0
8	2337	459.013757125631	0
8	2342	460.017427403285	0
8	2347	461.366758815364	0
8	2352	461.984207484346	0
8	2357	462.366733190133	0
8	2366	463.435440314589	0
8	2369	463.68793697366	0
8	2372	463.940433632731	0
8	2377	465.162953116315	0
8	2382	465.92273120482	0
8	2387	466.594116886425	0
8	2392	468.697242669553	0
8	2397	470.039918689094	0
8	2402	470.42365359703	0
8	2407	472.440672927003	0
8	2412	473.066719666548	0
8	2417	474.451113952186	0
8	2422	476.584377457717	0
8	2427	478.670957504061	0
8	2432	478.932838943665	0
8	2437	479.332204069268	0
8	2442	481.491952313566	0
8	2447	484.351009411567	0
8	2452	485.222904356574	0
8	2457	487.135818862818	0
8	2462	488.615858883143	0
8	2469	489.594360515414	0
8	2474	489.846857174485	0
8	2477	490.099353833556	0
8	2482	490.448716929851	0
8	2489	492.625603520712	0
8	2492	492.878100179783	0
8	2497	496.143143517277	0
8	2504	496.675072403556	0
8	2509	496.927569062627	0
8	2512	497.180065721698	0
8	2518	497.62059018218	0
8	2523	498.341994648408	0
8	2528	498.84499266528	0
8	2535	500.909707121197	0
8	2538	501.162203780268	0
8	2545	502.481992552022	0
8	2548	502.734489211093	0
8	2553	503.238399330581	0
8	2558	504.153756028589	0
8	2565	504.502438518653	0
8	2568	504.754935177724	0
8	2573	507.933130530995	0
8	2578	508.451850515853	0
8	2583	510.125442187308	0
8	2588	512.103247742083	0
8	2595	512.79069341833	0
8	2598	513.043190077401	0
8	2605	514.878460992462	0
8	2608	515.130957651533	0
8	2613	517.053970964041	0
8	2620	517.311992881701	0
8	2623	517.564489540772	0
8	2628	518.003386680793	0
8	2635	518.431386977174	0
8	2638	518.683883636245	0
8	2643	518.992938358015	0
8	2650	519.506023655891	0
8	2653	519.758520314962	0
8	2658	522.033406308975	0
8	2663	523.218802229377	0
8	2668	524.00261386535	0
8	2673	524.308449079572	0
8	2678	528.253918207919	0
8	2683	530.020414784488	0
8	2688	530.291291989633	0
8	2695	531.792611996557	0
8	2698	532.045108655628	0
8	2703	532.584010787402	0
8	2710	533.447451554951	0
8	2713	533.699948214022	0
8	2718	536.297511827038	0
8	2723	536.5665393921	0
8	2730	537.736756646793	0
8	2733	537.989253305864	0
8	2738	540.253272376982	0
8	2743	541.800955186423	0
8	2748	542.456440217721	0
8	2753	543.646826833881	0
8	2758	544.355501276339	0
8	2763	545.078793736289	0
8	2771	545.519318196771	0
8	2774	545.771814855842	0
8	2779	546.047737185902	0
8	2786	546.839904764303	0
8	2789	547.092401423374	0
8	2794	547.380825901398	0
8	2799	549.757653958828	0
8	2804	550.039300787938	0
8	2811	551.558417096858	0
8	2814	551.810913755929	0
8	2819	553.216519101544	0
8	2824	554.10930985788	0
8	2829	554.50087492612	0
8	2836	555.505245675419	0
8	2839	555.75774233449	0
8	2844	557.429967556249	0
8	2849	559.828417493004	0
8	2856	560.098825364231	0
8	2863	560.351322023302	0
8	2866	560.603818682373	0
8	2869	560.856315341444	0
8	2876	561.615371273406	0
8	2879	561.867867932477	0
8	2886	562.227923541655	0
8	2891	562.480420200726	0
8	2894	562.732916859797	0
8	2899	563.63030978925	0
8	2904	564.8211406356	0
8	2909	565.156293444288	0
8	2918	565.581540353341	0
8	2921	565.834037012412	0
8	2924	566.086533671483	0
8	2929	567.319661181805	0
8	2936	569.505445341035	0
8	2941	569.757942000106	0
8	2944	570.010438659177	0
8	2949	572.687690880158	0
8	2954	573.938359516044	0
8	2959	574.353295506744	0
8	2964	578.406944407019	0
8	2969	580.323718514639	0
8	2974	581.843121676671	0
8	2981	582.9915134896	0
8	2984	583.244010148671	0
8	2991	583.929391216575	0
8	2994	584.181887875646	0
8	2999	586.216738708297	0
8	3006	586.505587321847	0
8	3009	586.758083980918	0
8	3016	587.019371696048	0
8	3020	587.45989615653	0
8	3025	588.221868193063	0
8	3030	589.088699564653	0
8	3035	589.534703649097	0
8	3040	589.881955064253	0
8	3047	590.300057225182	0
8	3050	590.552553884253	0
8	3055	593.21015497248	0
8	3060	593.879259178187	0
8	3067	594.822649120607	0
8	3070	595.075145779678	0
8	3077	596.22909181092	0
8	3080	596.481588469991	0
8	3085	596.862097597889	0
8	3090	598.333871597455	0
8	3095	600.934966835106	0
8	3100	601.984831758518	0
8	3107	602.320470086806	0
8	3110	602.572966745877	0
8	3119	603.635230620365	0
8	3122	603.887727279436	0
8	3125	604.140223938507	0
8	3130	605.764898127933	0
8	3135	607.367342901382	0
8	3140	608.739270553785	0
8	3145	613.166025212181	0
8	3150	614.477796816835	0
8	3155	615.382277600486	0
8	3160	616.031368707395	0
8	3165	617.668857811312	0
8	3170	622.146508948124	0
8	3177	622.468748680551	0
8	3180	622.721245339622	0
8	3185	624.933116570125	0
8	3190	625.350522311629	0
8	3199	626.832226021532	0
8	3202	627.084722680603	0
8	3205	627.337219339674	0
8	3210	628.309646044839	0
8	3217	629.027227580852	0
8	3220	629.279724239923	0
8	3227	630.111977330378	0
8	3230	630.364473989449	0
8	3235	631.546884307091	0
8	3240	632.26617072501	0
8	3245	632.536906748393	0
8	3252	632.8900092732	0
8	3255	633.142505932271	0
8	3260	633.659359730881	0
8	3265	635.140738682496	0
8	3273	636.953445666037	0
8	3276	637.205942325108	0
8	3281	638.78961196131	0
8	3286	640.679576752322	0
8	3291	641.240357612073	0
8	3296	642.181771343861	0
8	3301	643.006497591598	0
8	3308	643.291471502839	0
8	3311	643.54396816191	0
8	3318	646.713570530489	0
8	3321	646.96606718956	0
8	3326	647.530984191917	0
8	3331	649.471200418772	0
8	3336	654.704825967664	0
8	3341	655.795282899674	0
8	3346	658.64072981261	0
8	3351	660.127172726697	0
8	3356	660.669390158279	0
8	3361	661.856378274548	0
8	3366	662.874440705224	0
8	3371	666.216317981359	0
8	3376	666.738495946524	0
8	3381	667.419834023777	0
8	3386	668.4067862209	0
8	3391	668.694405622273	0
8	3398	669.069419657572	0
8	3401	669.321916316643	0
8	3406	670.155083845532	0
8	3411	670.725607446018	0
8	3416	670.997530575621	0
8	3423	671.284866290523	0
8	3426	671.537362949594	0
8	3433	672.226731181289	0
8	3436	672.47922784036	0
8	3441	673.333707410128	0
8	3448	674.626500881499	0
8	3451	674.87899754057	0
8	3456	675.242008839778	0
8	3463	676.77847518203	0
8	3466	677.030971841101	0
8	3471	679.400697121211	0
8	3476	680.124973635297	0
8	3483	681.351172250739	0
8	3486	681.60366890981	0
8	3491	682.061385025143	0
8	3496	684.553613042417	0
8	3501	687.028244361604	0
8	3506	688.415571473233	0
8	3511	690.058700591633	0
8	3516	692.545286860011	0
8	3522	692.985811320493	0
8	3527	695.634336548306	0
8	3532	697.74944124547	0
8	3537	699.416356714761	0
8	3544	700.152877526805	0
8	3547	700.405374185876	0
8	3552	701.167841998211	0
8	3557	703.143208468179	0
8	3562	703.463457819404	0
8	3569	704.586651786152	0
8	3574	704.839148445223	0
8	3577	705.091645104294	0
8	3582	706.835032433948	0
8	3587	708.724603396995	0
8	3594	709.678044292751	0
8	3601	709.930540951822	0
8	3604	710.183037610893	0
8	3607	710.435534269964	0
8	3612	710.887821671489	0
8	3617	711.297375834091	0
8	3626	711.822661731058	0
8	3629	712.075158390129	0
8	3632	712.3276550492	0
8	3637	712.858622315192	0
8	3642	713.157683241125	0
8	3649	713.651146628732	0
8	3652	713.903643287803	0
8	3659	714.477764946939	0
8	3662	714.73026160601	0
8	3671	718.079411716749	0
8	3674	718.33190837582	0
8	3677	718.584405034891	0
8	3682	719.182233271052	0
8	3687	720.236852151109	0
8	3692	720.944932517325	0
8	3697	722.075108174831	0
8	3702	722.350930046502	0
8	3709	726.491304501341	0
8	3712	726.743801160412	0
8	3717	727.011114902859	0
8	3722	728.200478094258	0
8	3729	728.458956449526	0
8	3732	728.711453108597	0
8	3737	729.777764864416	0
8	3742	730.04811441192	0
8	3747	731.659422584916	0
8	3752	732.710804845764	0
8	3759	733.19129056827	0
8	3762	733.443787227341	0
8	3769	733.895069809756	0
8	3775	734.335594270238	0
8	3778	734.588090929309	0
8	3789	735.238487809583	0
8	3792	735.490984468654	0
8	3797	735.743481127725	0
8	3803	735.995977786796	0
8	3806	736.248474445867	0
8	3811	737.28617379932	0
8	3816	739.199772348266	0
8	3821	741.112347774303	0
8	3826	743.005669802039	0
8	3831	743.863022638607	0
8	3838	744.26271239893	0
8	3841	744.515209058001	0
8	3846	745.242903926139	0
8	3851	745.963854275134	0
8	3856	747.288078092671	0
8	3861	747.805260431328	0
8	3868	749.053163410953	0
8	3871	749.305660070024	0
8	3876	750.453487078902	0
8	3881	751.104209208807	0
8	3888	751.647031563353	0
8	3891	751.899528222424	0
8	3896	755.236387056446	0
8	3903	757.798103071497	0
8	3906	758.050599730568	0
8	3911	760.013191942372	0
8	3916	764.682310772296	0
8	3921	766.167791814154	0
8	3928	766.819001840402	0
8	3933	767.071498499473	0
8	3938	767.323995158544	0
8	3941	767.576491817615	0
8	3946	768.428605804325	0
8	3953	768.934722463994	0
8	3956	769.187219123065	0
8	3961	769.986925292031	0
8	3966	771.136506711256	0
8	3971	771.974663915767	0
8	3976	772.991677155159	0
8	3981	773.824259494034	0
8	3988	777.971178879984	0
8	3991	778.223675539055	0
8	3996	779.111098318225	0
8	4001	779.814280479938	0
8	4006	784.596811289699	0
8	4011	786.742026252704	0
8	4018	787.235005634958	0
8	4021	787.487502294029	0
8	4027	788.580809160689	0
8	4032	789.718966808128	0
8	4037	791.16943255344	0
8	4042	794.232312843789	0
8	4047	794.6436922317	0
8	4052	795.56255528371	0
8	4057	795.908448020975	0
8	4064	796.633397627189	0
8	4067	796.88589428626	0
8	4072	797.601023564428	0
8	4077	798.100327524156	0
8	4082	798.495416985724	0
8	4087	798.806321516967	0
8	4092	800.383219930668	0
8	4097	801.18132454387	0
8	4102	802.284190380335	0
8	4107	802.5744838835	0
8	4112	804.037459441695	0
8	4117	805.043137753647	0
8	4122	806.448130736483	0
8	4127	806.867448905682	0
8	4134	808.907286094811	0
8	4137	809.159782753882	0
8	4142	810.650161081038	0
8	4147	811.028009479224	0
8	4154	811.839199744676	0
8	4157	812.091696403747	0
8	4164	813.101838184161	0
8	4167	813.354334843232	0
8	4172	814.534015707904	0
8	4177	816.803829964287	0
8	4182	819.678296359494	0
8	4187	820.489621609935	0
8	4192	821.445680591306	0
8	4199	821.87540111995	0
8	4204	822.127897779021	0
8	4207	822.380394438092	0
8	4212	824.35856925236	0
8	4217	825.200043439578	0
8	4222	825.558887711628	0
8	4227	826.152539074138	0
8	4234	826.95260013092	0
8	4237	827.205096789991	0
8	4242	827.694815979065	0
8	4249	829.298210160895	0
8	4252	829.550706819966	0
8	4257	831.129785149126	0
8	4262	832.04345698391	0
8	4267	834.677372657529	0
8	4272	835.247068409407	0
8	4278	837.406553156242	0
8	4285	837.955603805388	0
8	4290	838.208100464459	0
8	4295	838.46059712353	0
8	4298	838.713093782601	0
8	4303	839.327948032307	0
8	4308	839.968870404074	0
8	4313	840.589982508458	0
8	4318	840.909143005163	0
8	4323	841.279242834588	0
8	4328	842.099892726696	0
8	4333	842.686260675558	0
8	4338	844.730903436647	0
8	4345	845.13575771843	0
8	4348	845.388254377501	0
8	4353	846.304259627004	0
8	4358	848.832357988612	0
8	4363	853.881836926953	0
8	4368	857.550285829102	0
8	4373	858.423314364263	0
8	4378	858.773667436855	0
8	4383	859.343452624456	0
8	4388	861.328197096597	0
8	4395	862.57496994176	0
8	4398	862.827466600831	0
8	4403	863.874973318376	0
8	4410	865.156372466117	0
8	4413	865.408869125188	0
8	4418	865.833337540503	0
8	4425	866.309906896741	0
8	4428	866.562403555812	0
8	4433	867.706967622214	0
8	4440	868.370751812389	0
8	4443	868.62324847146	0
8	4448	870.222337465595	0
8	4453	871.676492562748	0
8	4460	873.313077922118	0
8	4463	873.565574581189	0
8	4470	873.994964764752	0
8	4473	874.247461423823	0
8	4480	877.05986985209	0
8	4483	877.312366511161	0
8	4490	878.727405737401	0
8	4493	878.979902396472	0
8	4498	880.685186905904	0
8	4503	880.938618234642	0
8	4508	881.411945706422	0
8	4513	882.390873671813	0
8	4520	884.04850390148	0
8	4525	884.301000560551	0
8	4529	884.741525021033	0
8	4534	887.775915457966	0
8	4543	888.734643358305	0
8	4546	888.987140017376	0
8	4549	889.239636676447	0
8	4554	889.757418827102	0
8	4559	891.840738874323	0
8	4566	892.487766039756	0
8	4569	892.740262698827	0
8	4576	894.525466134916	0
8	4579	894.777962793987	0
8	4584	897.428699061667	0
8	4589	902.113354573504	0
8	4594	902.848998929222	0
8	4599	903.828325789194	0
8	4606	904.980021275791	0
8	4609	905.232517934862	0
8	4614	906.11607549956	0
8	4621	907.773373224979	0
8	4624	908.02586988405	0
8	4631	909.540978617735	0
8	4634	909.793475276806	0
8	4641	912.218729994079	0
8	4644	912.47122665315	0
8	4649	913.852971195989	0
8	4654	915.7120081538	0
8	4659	916.305591700948	0
8	4666	918.223210927951	0
8	4669	918.475707587022	0
8	4676	918.825612031992	0
8	4679	919.078108691063	0
8	4684	920.578107350787	0
8	4689	921.527921836502	0
8	4694	922.13062961143	0
8	4701	927.260968521803	0
8	4704	927.513465180874	0
8	4709	928.856510817546	0
8	4714	929.983045554767	0
8	4721	930.5586752906	0
8	4724	930.811171949671	0
8	4729	931.546918247973	0
8	4734	934.823745156065	0
8	4739	935.57870517284	0
8	4748	935.977070184686	0
8	4751	936.229566843757	0
8	4754	936.482063502828	0
8	4759	937.089652717615	0
8	4766	937.873360463635	0
8	4769	938.125857122706	0
8	4774	938.611277648653	0
8	4780	939.331299006827	0
8	4785	939.879948841133	0
8	4790	940.279535069049	0
8	4795	943.065825815329	0
8	4802	943.633900016311	0
8	4805	943.886396675382	0
8	4810	945.07135829489	0
8	4815	946.297007204757	0
8	4820	947.172387297169	0
8	4825	948.434979394316	0
8	4830	952.560042008492	0
8	4837	952.889671341828	0
8	4840	953.142168000899	0
8	4845	956.515049481382	0
8	4852	956.801160178901	0
8	4855	957.053656837972	0
8	4860	957.315207736363	0
8	4865	958.439002322727	0
8	4870	959.784309871927	0
8	4875	960.379477069356	0
8	4880	961.087716041728	0
8	4885	961.476134538493	0
8	4890	963.93902672691	0
8	4895	964.230119573516	0
8	4900	965.247086782618	0
8	4905	966.643193462585	0
8	4910	968.123828445993	0
8	4915	970.01053214519	0
8	4920	971.272462137073	0
8	4925	973.235221446192	0
8	4930	973.617775832962	0
8	4935	975.875391300216	0
8	4940	977.332929915669	0
8	4945	979.245726828796	0
8	4950	980.4788184573	0
8	4955	980.920526410725	0
8	4960	981.973990582158	0
8	4967	982.975362041391	0
8	4970	983.227858700462	0
8	4977	985.269559151527	0
8	4980	985.522055810598	0
8	4985	985.908416165428	0
8	4990	987.368601561757	0
8	4995	988.891486667927	0
8	5000	990.087857243437	0
8	5005	991.450770152607	0
8	5010	991.759900416984	0
8	5015	992.10392365804	0
8	5022	993.623644947329	0
8	5025	993.8761416064	0
8	5031	994.346346419877	0
8	5036	995.076476810664	0
8	5041	997.059814611535	0
8	5046	997.944269619312	0

