version 2
run General-337-20240201-11:04:28-40057
attr configname General
attr datetime 20240201-11:04:28
attr experiment General
attr inifile main.ini
attr iterationvars "$0=1.2, $1=3.5, $2=50"
attr iterationvarsf 1.2,3.5,50-
attr measurement "$0=1.2, $1=3.5, $2=50"
attr network Rete
attr processid 40057
attr repetition 17
attr replication #17
attr resultdir results
attr runnumber 337
attr seedset 337
param Rete.lambda 1.2
param Rete.a 0.3s
param Rete.b 3.5s
param Rete.c 0.1s
param Rete.d 0.3s
param Rete.mu 3.0
param Rete.source2.interArrivalTime exponential(1s/lambda)
param Rete.source2.jobServiceTime exponential(1s/mu)
param Rete.source2.deadline uniform(a,b)
param Rete.server2.j 50
param Rete.server2.V uniform(c,d)

vector 0 Rete.passiveQueue queueLength:vector ETV
attr interpolationmode sample-hold
attr title "queue length, vector"
vector 1 Rete.sink lifeTime:vector ETV
attr interpolationmode none
attr title "lifetime of arrived jobs, vector"
attr unit s
vector 2 Rete.sink totalQueueingTime:vector ETV
attr interpolationmode none
attr title "the total time spent in queues by arrived jobs, vector"
attr unit s
vector 3 Rete.sink queuesVisited:vector ETV
attr interpolationmode none
attr title "the total number of queues visited by arrived jobs, vector"
vector 4 Rete.sink totalServiceTime:vector ETV
attr interpolationmode none
attr title "the total time spent  by arrived jobs, vector"
attr unit s
vector 5 Rete.sink totalDelayTime:vector ETV
attr interpolationmode none
attr title "the total time spent in delay nodes by arrived jobs, vector"
attr unit s
vector 6 Rete.sink delaysVisited:vector ETV
attr interpolationmode none
attr title "the total number of delays visited by arrived jobs, vector"
vector 7 Rete.sink generation:vector ETV
attr interpolationmode none
attr title "the generation of the arrived jobs, vector"
vector 8 Rete.passiveQueue queueingTime:vector ETV
attr interpolationmode none
attr title "queueing time at dequeue, vector"
attr unit s
0	0	0	0
0	15	2.915080250815	1
0	16	2.928178946057	0
0	250	39.24632298421	1
0	253	39.391964723297	0
0	296	47.67890924312	1
0	297	47.712638067812	0
0	331	51.278180727528	1
0	332	51.278790569758	0
0	361	52.891670162877	1
0	362	52.916014698643	0
0	496	75.665649126856	1
0	497	75.704819896455	0
0	542	87.56432781009	1
0	543	87.580916220469	0
0	602	92.807136645582	1
0	603	92.842037727593	0
0	754	113.233755130339	1
0	755	113.34347631136	0
0	838	129.774283484308	1
0	839	129.829263384626	0
0	883	137.700544593136	1
0	884	137.706059517773	0
0	938	153.244717324395	1
0	939	153.276834557907	0
0	1005	163.840764829034	1
0	1006	163.901648804012	0
0	1059	169.458041415066	1
0	1060	169.458906712871	0
0	1139	185.288269296926	1
0	1140	185.299394744405	0
0	1260	209.385129452823	1
0	1261	209.391554079992	0
0	1265	209.43324140687	1
0	1266	209.447128987469	0
0	1521	242.961024710829	1
0	1522	242.988573462641	0
0	1566	254.15371253369	1
0	1567	254.192715217187	0
0	1571	254.209852669257	1
0	1572	254.248290124664	0
0	1656	268.004324916649	1
0	1657	268.007694801826	0
0	1701	276.058353625681	1
0	1702	276.105916520413	0
0	1897	302.97612076087	1
0	1898	302.994516323478	0
0	1982	312.617297517226	1
0	1983	312.624080516331	0
0	1992	312.795676270038	1
0	1993	312.838242429698	0
0	2009	314.643794494324	1
0	2010	314.674559571532	0
0	2108	332.820155719722	1
0	2109	332.825467613864	0
0	2183	351.807783880814	1
0	2184	351.824946646008	0
0	2349	376.279217778902	1
0	2350	376.32725104852	0
0	2374	379.296699206228	1
0	2375	379.323401503809	0
0	2414	384.249549197893	1
0	2415	384.250408844542	0
0	2555	407.177344702377	1
0	2556	407.206645345853	0
0	2560	407.218307013268	1
0	2561	407.26222025333	0
0	2590	413.990839518416	1
0	2591	414.023976957405	0
0	2605	419.905762804537	1
0	2606	419.911923348926	0
0	2625	422.90536839165	1
0	2626	422.916244447449	0
0	2771	453.323026931723	1
0	2772	453.372538773059	0
0	2871	474.440921067216	1
0	2872	474.483102257771	0
0	3177	535.581879783043	1
0	3178	535.626355336195	0
0	3308	560.711241319156	1
0	3309	560.712793263693	0
0	3393	574.892081371294	1
0	3394	574.91433985655	0
0	3493	593.626706467492	1
0	3494	593.633919671434	0
0	3515	596.3512935372	1
0	3516	596.390335156343	0
0	3704	623.9559911774	1
0	3705	623.975901775078	0
0	3739	630.170685414958	1
0	3740	630.197667893481	0
0	3744	630.198769617096	1
0	3745	630.253242800958	0
0	3895	654.329448004304	1
0	3896	654.342872550601	0
0	4017	677.915577438449	1
0	4018	677.998813443095	0
0	4041	681.549892881529	1
0	4042	681.597366170909	0
0	4091	688.716570068637	1
0	4092	688.725313576975	0
0	4106	691.119976784069	1
0	4107	691.133460515925	0
0	4131	697.132180302119	1
0	4133	697.137177476556	2
0	4134	697.172066981974	1
0	4137	697.227641889451	0
0	4166	701.090037026953	1
0	4167	701.091802374122	0
0	4332	721.221327117702	1
0	4333	721.235520280636	0
0	4402	734.917594306574	1
0	4403	734.932066027596	0
0	4437	740.396236567661	1
0	4438	740.40665502563	0
0	4487	747.666640389298	1
0	4488	747.711310714215	0
0	4497	748.446325096494	1
0	4498	748.481032862619	0
0	4623	765.947413732399	1
0	4624	766.000134268277	0
0	4673	772.154456830394	1
0	4674	772.163195806987	0
0	4713	776.13462985465	1
0	4714	776.184444689898	0
0	4758	780.927834877129	1
0	4759	780.933832369424	0
0	4789	784.595343665193	1
0	4790	784.618172897449	0
0	5070	834.276371162042	1
0	5071	834.302982932937	0
0	5230	863.929582793818	1
0	5231	863.970426339815	0
0	5255	868.189692956863	1
0	5256	868.214997779747	0
0	5260	868.22414041024	1
0	5261	868.270572687224	0
0	5291	876.153273214778	1
0	5292	876.208285845865	0
0	5301	878.57622614619	1
0	5302	878.600708393629	0
0	5516	913.212938388408	1
0	5517	913.216942521451	0
0	5602	921.563718653346	1
0	5603	921.605024690298	0
0	5808	956.800917846296	1
0	5809	956.826724236166	0
1	5	1.396384888259	0.055574907477
1	10	2.095403175158	0.055574907477
1	17	2.928178946057	0.055574907477
1	20	2.983753853534	0.068673602719
1	25	3.34955018471	0.055574907477
1	30	4.006380894527	0.055574907477
1	35	6.649254488017	0.055574907477
1	40	6.867095835825	0.055574907477
1	45	7.692429896128	0.055574907477
1	50	8.038149391731	0.055574907477
1	55	9.03873690186	0.055574907477
1	60	9.448485616389	0.055574907477
1	65	9.932349341837	0.055574907477
1	70	10.081506363023	0.055574907477
1	75	10.856286317682	0.055574907477
1	80	11.989552657558	0.055574907477
1	85	13.711003634568	0.055574907477
1	90	15.476454249967	0.055574907477
1	95	15.61677626584	0.055574907477
1	100	15.859768208931	0.055574907477
1	105	16.549878564106	0.055574907477
1	110	16.693505483788	0.055574907477
1	115	17.382811899071	0.055574907477
1	120	17.770054096873	0.055574907477
1	125	18.008779182346	0.055574907477
1	130	19.038256297182	0.055574907477
1	135	19.567409958378	0.055574907477
1	140	20.841930332428	0.055574907477
1	145	23.165212674327	0.055574907477
1	150	23.586089101468	0.055574907477
1	155	25.537668847703	0.055574907477
1	160	26.896632930463	0.055574907477
1	165	28.111810182457	0.055574907477
1	170	28.274677035327	0.055574907477
1	175	28.707943549992	0.055574907477
1	180	29.213410547239	0.055574907477
1	185	29.319887260775	0.055574907477
1	190	29.779632829196	0.055574907477
1	195	30.572328807451	0.055574907477
1	200	31.207087334419	0.055574907477
1	205	31.64273047186	0.055574907477
1	210	33.512386780591	0.055574907477
1	215	34.533626566052	0.055574907477
1	220	34.843586350633	0.055574907477
1	225	35.175604281443	0.055574907477
1	230	36.255139028887	0.055574907477
1	235	36.597933799586	0.055574907477
1	240	37.8286962152	0.055574907477
1	245	38.714276327865	0.055574907477
1	252	39.262852766865	0.055574907477
1	256	39.447539630774	0.201216646564
1	261	40.166374913106	0.055574907477
1	266	40.875105272123	0.055574907477
1	271	41.221856893831	0.055574907477
1	276	44.789148719459	0.055574907477
1	281	46.299686376524	0.055574907477
1	286	46.731458206133	0.055574907477
1	291	47.575310128214	0.055574907477
1	298	47.712638067812	0.055574907477
1	301	47.768212975289	0.089303732169
1	306	47.831531752935	0.055574907477
1	311	48.473640965691	0.055574907477
1	316	48.576492253044	0.055574907477
1	321	49.153634027754	0.055574907477
1	326	50.811550015425	0.055574907477
1	333	51.278790569758	0.055574907477
1	336	51.334365477235	0.056184749707
1	341	51.507371405055	0.055574907477
1	346	51.715692419413	0.055574907477
1	351	52.128708722521	0.055574907477
1	356	52.588402778014	0.055574907477
1	363	52.916014698643	0.055574907477
1	366	52.97158960612	0.079919443243
1	371	53.429506144895	0.055574907477
1	376	53.919456858331	0.055574907477
1	381	54.796064525633	0.055574907477
1	386	55.655143123744	0.055574907477
1	391	57.129600971585	0.055574907477
1	396	58.281062185461	0.055574907477
1	401	59.48098997193	0.055574907477
1	406	60.444774589987	0.055574907477
1	411	61.045328043746	0.055574907477
1	416	62.362548266926	0.055574907477
1	421	63.442914251302	0.055574907477
1	426	63.990037276857	0.055574907477
1	431	64.134756726838	0.055574907477
1	436	64.463299493974	0.055574907477
1	441	67.167415816663	0.055574907477
1	446	68.102924443259	0.055574907477
1	451	68.690077225387	0.055574907477
1	456	68.832685638652	0.055574907477
1	461	69.243915039601	0.055574907477
1	466	71.270876054881	0.055574907477
1	471	71.451967691646	0.055574907477
1	476	71.588529916922	0.055574907477
1	481	71.972030760048	0.055574907477
1	486	73.901597537339	0.055574907477
1	491	74.097121084197	0.055574907477
1	498	75.704819896455	0.055574907477
1	501	75.760394803932	0.094745677076
1	507	79.632608399969	0.055574907477
1	512	82.914812391411	0.055574907477
1	517	85.225421776415	0.055574907477
1	522	85.348310638725	0.055574907477
1	527	85.644458664815	0.055574907477
1	532	87.046841883285	0.055574907477
1	537	87.213570069231	0.055574907477
1	544	87.580916220469	0.055574907477
1	547	87.636491127946	0.072163317856
1	552	88.330319592001	0.055574907477
1	557	88.537063579952	0.055574907477
1	562	89.14819860168	0.055574907477
1	567	90.104410605412	0.055574907477
1	572	90.715042289172	0.055574907477
1	577	91.01570559721	0.055574907477
1	582	91.361867706213	0.055574907477
1	587	91.58799361902	0.055574907477
1	592	91.924881871566	0.055574907477
1	597	92.73044917775	0.055574907477
1	604	92.842037727593	0.055574907477
1	607	92.89761263507	0.090475989488
1	612	93.959267151102	0.055574907477
1	617	94.057417604236	0.055574907477
1	622	94.544842349049	0.055574907477
1	627	94.995653391125	0.055574907477
1	632	95.518503693882	0.055574907477
1	637	96.03289543175	0.055574907477
1	642	96.822164231179	0.055574907477
1	647	97.631452133986	0.055574907477
1	652	97.968734830988	0.055574907477
1	657	98.101644326162	0.055574907477
1	662	98.209003672207	0.055574907477
1	667	98.561254611293	0.055574907477
1	672	99.950397602618	0.055574907477
1	677	100.565353769699	0.055574907477
1	682	101.434282076843	0.055574907477
1	687	101.631146193219	0.055574907477
1	692	103.237100503839	0.055574907477
1	697	104.01041225042	0.055574907477
1	702	104.998031943219	0.055574907477
1	707	105.612033594437	0.055574907477
1	712	106.278479346135	0.055574907477
1	717	107.997460625078	0.055574907477
1	722	108.709981486412	0.055574907477
1	727	109.184310804485	0.055574907477
1	732	109.348808465205	0.055574907477
1	737	110.296158027905	0.055574907477
1	742	111.150678042645	0.055574907477
1	747	112.025449059997	0.055574907477
1	752	113.214364354928	0.055574907477
1	758	113.399051218837	0.165296088498
1	763	115.364046788794	0.055574907477
1	768	116.33637799443	0.055574907477
1	773	116.592775782659	0.055574907477
1	778	117.087477597675	0.055574907477
1	783	117.578916925705	0.055574907477
1	788	118.853211579194	0.055574907477
1	793	119.781335503799	0.055574907477
1	798	121.187387192351	0.055574907477
1	803	124.059043054673	0.055574907477
1	808	125.031275700636	0.055574907477
1	813	125.901828529566	0.055574907477
1	818	127.513507155906	0.055574907477
1	823	127.627262610648	0.055574907477
1	828	127.717946539733	0.055574907477
1	833	129.572994752617	0.055574907477
1	840	129.829263384626	0.055574907477
1	843	129.884838292103	0.110554807795
1	848	132.278717152833	0.055574907477
1	853	132.358734347025	0.055574907477
1	858	133.085013488739	0.055574907477
1	863	134.534438145684	0.055574907477
1	868	134.807572910923	0.055574907477
1	873	135.093618943117	0.055574907477
1	878	137.179063276709	0.055574907477
1	885	137.706059517773	0.055574907477
1	888	137.76163442525	0.061089832114
1	893	138.474686614147	0.055574907477
1	898	141.656819589073	0.055574907477
1	903	142.298516913576	0.055574907477
1	908	144.491314751006	0.055574907477
1	913	147.565287869859	0.055574907477
1	918	151.304860486224	0.055574907477
1	923	151.678950098122	0.055574907477
1	928	151.957058266048	0.055574907477
1	933	152.833654975632	0.055574907477
1	940	153.276834557907	0.055574907477
1	943	153.332409465384	0.087692140989
1	948	154.670326443324	0.055574907477
1	953	155.142516625633	0.055574907477
1	958	155.549003677527	0.055574907477
1	963	155.651674569549	0.055574907477
1	968	156.062615164531	0.055574907477
1	973	157.496813832882	0.055574907477
1	978	159.61684209962	0.055574907477
1	983	159.878706515623	0.055574907477
1	988	161.894295374914	0.055574907477
1	993	162.530529086731	0.055574907477
1	998	162.663154588562	0.055574907477
1	1003	163.77253684758	0.055574907477
1	1009	163.957223711489	0.116458882455
1	1014	165.218005831487	0.055574907477
1	1019	166.44864673862	0.055574907477
1	1024	166.726336042133	0.055574907477
1	1029	166.868547480614	0.055574907477
1	1034	167.019143870792	0.055574907477
1	1039	167.307195676275	0.055574907477
1	1044	167.696233189504	0.055574907477
1	1049	167.783076024612	0.055574907477
1	1054	169.113506456457	0.055574907477
1	1061	169.458906712871	0.055574907477
1	1064	169.514481620348	0.056440205282
1	1069	173.162093401795	0.055574907477
1	1074	173.751711516175	0.055574907477
1	1079	173.982847282875	0.055574907477
1	1084	174.273553558652	0.055574907477
1	1089	174.99883171362	0.055574907477
1	1094	176.00488920453	0.055574907477
1	1099	176.321245720377	0.055574907477
1	1104	177.613684958728	0.055574907477
1	1109	177.843155424943	0.055574907477
1	1114	179.64070314498	0.055574907477
1	1119	182.812838732423	0.055574907477
1	1124	183.57728281956	0.055574907477
1	1129	184.672781362293	0.055574907477
1	1134	184.955037183702	0.055574907477
1	1141	185.299394744405	0.055574907477
1	1144	185.354969651882	0.066700354956
1	1149	187.092031917495	0.055574907477
1	1154	188.050538000156	0.055574907477
1	1159	188.820294584937	0.055574907477
1	1164	190.026933769245	0.055574907477
1	1169	191.619669452102	0.055574907477
1	1174	194.073545543153	0.055574907477
1	1179	194.254994499042	0.055574907477
1	1184	196.320129468195	0.055574907477
1	1189	197.109312476289	0.055574907477
1	1194	198.008922094497	0.055574907477
1	1199	198.38944704245	0.055574907477
1	1204	198.680307929105	0.055574907477
1	1209	200.439762711982	0.055574907477
1	1214	202.799720536315	0.055574907477
1	1219	203.652113657627	0.055574907477
1	1224	204.302288881622	0.055574907477
1	1229	206.240260438578	0.055574907477
1	1234	206.475638393458	0.055574907477
1	1239	207.063302552186	0.055574907477
1	1244	208.112610828319	0.055574907477
1	1249	208.351709220118	0.055574907477
1	1254	208.442743592433	0.055574907477
1	1262	209.391554079992	0.055574907477
1	1267	209.447128987469	0.061999534646
1	1270	209.502703894946	0.069462488076
1	1275	210.11233474522	0.055574907477
1	1280	211.989848210898	0.055574907477
1	1285	212.210688249479	0.055574907477
1	1290	212.583144944286	0.055574907477
1	1295	212.685212113544	0.055574907477
1	1300	213.238110096019	0.055574907477
1	1305	214.237236595736	0.055574907477
1	1310	215.424951876118	0.055574907477
1	1315	216.362071514932	0.055574907477
1	1320	217.858792423142	0.055574907477
1	1325	220.420186498465	0.055574907477
1	1330	220.794439713635	0.055574907477
1	1335	221.042509727155	0.055574907477
1	1340	221.234272403456	0.055574907477
1	1345	223.161150242031	0.055574907477
1	1350	223.624118406735	0.055574907477
1	1355	225.802236896162	0.055574907477
1	1360	226.056476357661	0.055574907477
1	1365	226.693667907147	0.055574907477
1	1370	227.887054669489	0.055574907477
1	1375	228.060762533727	0.055574907477
1	1380	228.711554025047	0.055574907477
1	1385	228.825191070879	0.055574907477
1	1390	228.993581043671	0.055574907477
1	1395	229.41164537258	0.055574907477
1	1400	229.915309504192	0.055574907477
1	1405	230.117127682302	0.055574907477
1	1410	230.3507591447	0.055574907477
1	1415	230.467229163827	0.055574907477
1	1420	230.650537631335	0.055574907477
1	1425	231.230224184928	0.055574907477
1	1430	231.684738261	0.055574907477
1	1435	232.233231301695	0.055574907477
1	1440	232.793261846081	0.055574907477
1	1445	234.094458310297	0.055574907477
1	1450	234.403467483736	0.055574907477
1	1455	234.577183948224	0.055574907477
1	1460	234.813002333426	0.055574907477
1	1465	235.063888678109	0.055574907477
1	1470	236.824454956559	0.055574907477
1	1475	238.295202833097	0.055574907477
1	1480	239.560623667119	0.055574907477
1	1485	239.690672426802	0.055574907477
1	1490	239.8063697957	0.055574907477
1	1495	240.928147001756	0.055574907477
1	1500	241.094883467129	0.055574907477
1	1505	241.743839947702	0.055574907477
1	1511	242.105739625305	0.055574907477
1	1516	242.228128892335	0.055574907477
1	1523	242.988573462641	0.055574907477
1	1526	243.044148370118	0.083123659289
1	1531	245.682445737932	0.055574907477
1	1536	245.914255893909	0.055574907477
1	1541	246.913975670463	0.055574907477
1	1546	247.130245581693	0.055574907477
1	1551	249.612098039125	0.055574907477
1	1556	250.618357629019	0.055574907477
1	1561	251.901214129961	0.055574907477
1	1568	254.192715217187	0.055574907477
1	1573	254.248290124664	0.094577590974
1	1576	254.303865032141	0.094012362884
1	1581	254.486711180202	0.055574907477
1	1586	256.039601734065	0.055574907477
1	1591	256.173467402689	0.055574907477
1	1596	256.542255843486	0.055574907477
1	1601	258.189053934744	0.055574907477
1	1606	258.5406804317	0.055574907477
1	1611	258.827995342504	0.055574907477
1	1616	258.934123688527	0.055574907477
1	1621	260.721787140724	0.055574907477
1	1626	262.093781933545	0.055574907477
1	1631	262.443359156714	0.055574907477
1	1636	262.646399303119	0.055574907477
1	1641	263.119542856583	0.055574907477
1	1646	263.502205970944	0.055574907477
1	1651	266.929330926298	0.055574907477
1	1658	268.007694801826	0.055574907477
1	1661	268.063269709303	0.058944792654
1	1666	268.348362576455	0.055574907477
1	1671	270.088776220915	0.055574907477
1	1676	270.722435061636	0.055574907477
1	1681	270.957907477378	0.055574907477
1	1686	271.820618940148	0.055574907477
1	1691	273.451429862912	0.055574907477
1	1696	274.293684009286	0.055574907477
1	1703	276.105916520413	0.055574907477
1	1706	276.16149142789	0.103137802209
1	1711	276.383738165507	0.055574907477
1	1716	277.184717360493	0.055574907477
1	1721	277.411472301996	0.055574907477
1	1726	279.172925927725	0.055574907477
1	1731	279.281515470406	0.055574907477
1	1736	279.350876428961	0.055574907477
1	1741	280.774661608046	0.055574907477
1	1746	281.027332700799	0.055574907477
1	1751	281.520096164168	0.055574907477
1	1756	281.580446468508	0.055574907477
1	1762	282.499611594134	0.055574907477
1	1767	284.134448139329	0.055574907477
1	1772	286.00020706512	0.055574907477
1	1777	286.223592563049	0.055574907477
1	1782	286.447504256634	0.055574907477
1	1787	286.76298762221	0.055574907477
1	1792	287.188630464911	0.055574907477
1	1797	288.918156195563	0.055574907477
1	1802	289.214822235854	0.055574907477
1	1807	290.523983238424	0.055574907477
1	1812	290.877235918512	0.055574907477
1	1817	292.447697472357	0.055574907477
1	1822	292.901851631529	0.055574907477
1	1827	293.531153922192	0.055574907477
1	1832	293.974177817713	0.055574907477
1	1837	294.225925446145	0.055574907477
1	1842	295.032469426812	0.055574907477
1	1847	295.422921536421	0.055574907477
1	1852	297.529519329353	0.055574907477
1	1857	297.99832917341	0.055574907477
1	1862	298.291231208984	0.055574907477
1	1867	299.579379369932	0.055574907477
1	1872	299.67193153149	0.055574907477
1	1877	299.968672990728	0.055574907477
1	1882	301.740873117141	0.055574907477
1	1887	302.078484644244	0.055574907477
1	1892	302.474575464567	0.055574907477
1	1899	302.994516323478	0.055574907477
1	1902	303.050091230955	0.073970470085
1	1907	303.395082069942	0.055574907477
1	1912	303.572985528148	0.055574907477
1	1917	305.181467164106	0.055574907477
1	1922	306.678005035635	0.055574907477
1	1927	306.934751688241	0.055574907477
1	1932	307.239905185295	0.055574907477
1	1937	307.72465840649	0.055574907477
1	1942	307.846874729803	0.055574907477
1	1947	308.693084590069	0.055574907477
1	1952	308.764352939926	0.055574907477
1	1957	308.971874799335	0.055574907477
1	1962	310.129496380909	0.055574907477
1	1967	310.234397239271	0.055574907477
1	1972	310.796775640293	0.055574907477
1	1977	311.884225070299	0.055574907477
1	1984	312.624080516331	0.055574907477
1	1987	312.679655423808	0.062357906582
1	1994	312.838242429698	0.055574907477
1	1997	312.893817337175	0.098141067137
1	2002	314.489860624168	0.055574907477
1	2007	314.5454476151	0.055574907477
1	2013	314.730134479009	0.086339984685
1	2018	314.823792148892	0.055574907477
1	2023	316.158848660098	0.055574907477
1	2028	316.31700479894	0.055574907477
1	2033	317.269921188037	0.055574907477
1	2038	318.046339774789	0.055574907477
1	2043	318.477798309615	0.055574907477
1	2048	318.66021436695	0.055574907477
1	2053	320.127737292577	0.055574907477
1	2058	320.950566975577	0.055574907477
1	2063	321.706521392019	0.055574907477
1	2068	322.337161730947	0.055574907477
1	2073	322.832753650905	0.055574907477
1	2078	323.384829697175	0.055574907477
1	2083	323.970563422509	0.055574907477
1	2088	325.63654613081	0.055574907477
1	2093	326.229526039286	0.055574907477
1	2098	328.215755072315	0.055574907477
1	2103	331.007424279942	0.055574907477
1	2110	332.825467613864	0.055574907477
1	2113	332.881042521341	0.060886801619
1	2118	333.83792477902	0.055574907477
1	2123	333.972396711811	0.055574907477
1	2128	335.534421397461	0.055574907477
1	2133	335.72787043829	0.055574907477
1	2138	336.253951729537	0.055574907477
1	2143	339.265794039969	0.055574907477
1	2148	341.72460832788	0.055574907477
1	2153	342.945430634297	0.055574907477
1	2158	347.815525349372	0.055574907477
1	2163	349.00173545007	0.055574907477
1	2168	351.121029124394	0.055574907477
1	2173	351.436519153068	0.055574907477
1	2178	351.723990903535	0.055574907477
1	2185	351.824946646008	0.055574907477
1	2188	351.880521553485	0.072737672671
1	2193	352.583074917599	0.055574907477
1	2198	352.785456839667	0.055574907477
1	2203	354.221597654895	0.055574907477
1	2208	356.458640173523	0.055574907477
1	2213	357.892539569865	0.055574907477
1	2218	359.361658738902	0.055574907477
1	2223	359.485562979379	0.055574907477
1	2228	359.764724065236	0.055574907477
1	2233	359.825201506764	0.055574907477
1	2238	360.612475030222	0.055574907477
1	2243	360.868288967357	0.055574907477
1	2248	361.063561384647	0.055574907477
1	2253	361.833917679462	0.055574907477
1	2258	361.91910699402	0.055574907477
1	2264	362.847757207742	0.055574907477
1	2269	363.479697869162	0.055574907477
1	2274	366.22540466856	0.055574907477
1	2279	366.377489234301	0.055574907477
1	2284	366.468342351546	0.055574907477
1	2289	367.794574281605	0.055574907477
1	2294	368.168960339193	0.055574907477
1	2299	369.175700166956	0.055574907477
1	2304	370.105323692084	0.055574907477
1	2309	371.297910283364	0.055574907477
1	2314	372.47406733597	0.055574907477
1	2319	373.121741850206	0.055574907477
1	2324	373.251008781646	0.055574907477
1	2329	374.186248637649	0.055574907477
1	2334	374.733614847326	0.055574907477
1	2339	375.682617222286	0.055574907477
1	2344	375.951961631444	0.055574907477
1	2351	376.32725104852	0.055574907477
1	2354	376.382825955997	0.103608177095
1	2359	376.541194595953	0.055574907477
1	2364	377.82151741399	0.055574907477
1	2369	379.140290954962	0.055574907477
1	2376	379.323401503809	0.055574907477
1	2379	379.378976411286	0.082277205058
1	2384	379.624744050502	0.055574907477
1	2389	380.061831805215	0.055574907477
1	2394	380.928702468607	0.055574907477
1	2399	382.196153881186	0.055574907477
1	2404	383.290880540497	0.055574907477
1	2409	383.382381960882	0.055574907477
1	2416	384.250408844542	0.055574907477
1	2419	384.305983752019	0.056434554126
1	2424	385.335204843362	0.055574907477
1	2429	388.008297327755	0.055574907477
1	2434	388.543179779953	0.055574907477
1	2439	389.579032141127	0.055574907477
1	2444	389.742499828001	0.055574907477
1	2449	390.075103392948	0.055574907477
1	2454	390.952593384524	0.055574907477
1	2459	391.096277132343	0.055574907477
1	2464	391.227550945162	0.055574907477
1	2469	391.379518152106	0.055574907477
1	2474	393.062917530304	0.055574907477
1	2479	394.498721951838	0.055574907477
1	2484	394.719246057179	0.055574907477
1	2489	395.17107096807	0.055574907477
1	2494	396.32375237845	0.055574907477
1	2499	396.611102571496	0.055574907477
1	2504	397.728181147085	0.055574907477
1	2509	399.029746716308	0.055574907477
1	2515	399.827422616935	0.055574907477
1	2520	399.980593634122	0.055574907477
1	2525	400.351972332141	0.055574907477
1	2530	402.802544845775	0.055574907477
1	2535	403.329834011178	0.055574907477
1	2540	403.541852957655	0.055574907477
1	2545	404.192887517308	0.055574907477
1	2550	404.557942116368	0.055574907477
1	2557	407.206645345853	0.055574907477
1	2562	407.26222025333	0.084875550953
1	2565	407.317795160807	0.099488147539
1	2570	408.807748071303	0.055574907477
1	2575	409.892698249694	0.055574907477
1	2580	412.079940423831	0.055574907477
1	2585	412.586128641708	0.055574907477
1	2592	414.023976957405	0.055574907477
1	2595	414.079551864882	0.088712346466
1	2600	415.032203599389	0.055574907477
1	2607	419.911923348926	0.055574907477
1	2610	419.967498256403	0.061735451866
1	2615	421.57501064581	0.055574907477
1	2620	421.919469278508	0.055574907477
1	2627	422.916244447449	0.055574907477
1	2630	422.971819354926	0.066450963276
1	2635	423.846904150982	0.055574907477
1	2640	424.487994563649	0.055574907477
1	2645	425.195810332503	0.055574907477
1	2650	427.913519701463	0.055574907477
1	2655	429.14352828911	0.055574907477
1	2660	429.689463381833	0.055574907477
1	2665	430.185630570853	0.055574907477
1	2670	431.697220738679	0.055574907477
1	2675	433.777144556055	0.055574907477
1	2680	437.221218778523	0.055574907477
1	2685	438.085459533594	0.055574907477
1	2690	438.821553011987	0.055574907477
1	2695	438.934668372756	0.055574907477
1	2700	439.649995309432	0.055574907477
1	2705	441.07956584802	0.055574907477
1	2710	441.462507942163	0.055574907477
1	2715	443.511079600566	0.055574907477
1	2720	444.920079565102	0.055574907477
1	2725	445.135654741398	0.055574907477
1	2730	446.041501866749	0.055574907477
1	2735	446.466657187899	0.055574907477
1	2740	446.934805860296	0.055574907477
1	2745	447.162659206529	0.055574907477
1	2750	450.121889366676	0.055574907477
1	2755	450.364533953461	0.055574907477
1	2760	452.22107121034	0.055574907477
1	2766	452.724425157375	0.055574907477
1	2773	453.372538773059	0.055574907477
1	2776	453.428113680536	0.105086748813
1	2781	453.702491121885	0.055574907477
1	2786	453.829132110239	0.055574907477
1	2791	456.189980283976	0.055574907477
1	2796	457.155672799214	0.055574907477
1	2801	458.308496676409	0.055574907477
1	2806	458.542746801172	0.055574907477
1	2811	459.540914079244	0.055574907477
1	2816	460.005070212424	0.055574907477
1	2821	460.417583412188	0.055574907477
1	2826	462.1651276682	0.055574907477
1	2831	464.464844602064	0.055574907477
1	2836	465.445587548566	0.055574907477
1	2841	465.676472475906	0.055574907477
1	2846	466.939667983913	0.055574907477
1	2851	467.348721739716	0.055574907477
1	2856	468.255441486287	0.055574907477
1	2861	472.355529085941	0.055574907477
1	2866	474.297416198403	0.055574907477
1	2873	474.483102257771	0.055574907477
1	2876	474.538677165248	0.097756098032
1	2881	474.814972588757	0.055574907477
1	2886	475.05129234459	0.055574907477
1	2891	476.467578041509	0.055574907477
1	2896	477.945439472444	0.055574907477
1	2901	479.010624682562	0.055574907477
1	2906	481.177960756757	0.055574907477
1	2911	482.746898014566	0.055574907477
1	2916	483.520772326584	0.055574907477
1	2921	485.854638320523	0.055574907477
1	2926	486.353768323474	0.055574907477
1	2931	488.579097503714	0.055574907477
1	2936	488.671521781625	0.055574907477
1	2941	489.088862785595	0.055574907477
1	2946	489.377377821216	0.055574907477
1	2951	490.243643206265	0.055574907477
1	2956	491.276890312657	0.055574907477
1	2961	491.498705689977	0.055574907477
1	2966	491.743685016406	0.055574907477
1	2971	492.38454500174	0.055574907477
1	2976	492.594116182068	0.055574907477
1	2981	494.70944254566	0.055574907477
1	2986	496.237740815385	0.055574907477
1	2991	497.489220707389	0.055574907477
1	2996	498.179031465333	0.055574907477
1	3001	498.817379094034	0.055574907477
1	3006	499.029813000399	0.055574907477
1	3011	501.320511914958	0.055574907477
1	3017	501.557490552856	0.055574907477
1	3022	502.220322796987	0.055574907477
1	3027	502.278038967703	0.055574907477
1	3032	502.618054414833	0.055574907477
1	3037	505.582158795087	0.055574907477
1	3042	505.818117966356	0.055574907477
1	3047	506.736412331998	0.055574907477
1	3052	507.109335742768	0.055574907477
1	3057	508.358680142697	0.055574907477
1	3062	508.56029223434	0.055574907477
1	3067	510.29355448923	0.055574907477
1	3072	510.774340984988	0.055574907477
1	3077	511.622976337797	0.055574907477
1	3082	511.780771371376	0.055574907477
1	3087	515.754707782119	0.055574907477
1	3092	517.429024107878	0.055574907477
1	3097	517.946089357783	0.055574907477
1	3102	520.683436571395	0.055574907477
1	3107	524.392715670884	0.055574907477
1	3112	524.661943483809	0.055574907477
1	3117	525.3022177199	0.055574907477
1	3122	525.721986644674	0.055574907477
1	3127	526.730013204504	0.055574907477
1	3132	527.534867376188	0.055574907477
1	3137	527.858519989937	0.055574907477
1	3142	528.699238065912	0.055574907477
1	3147	529.046040194506	0.055574907477
1	3152	529.4638705612	0.055574907477
1	3157	530.679897316857	0.055574907477
1	3162	531.83979633178	0.055574907477
1	3167	532.558320347478	0.055574907477
1	3172	534.273302730524	0.055574907477
1	3179	535.626355336195	0.055574907477
1	3182	535.681930243672	0.100050460629
1	3187	535.961368497784	0.055574907477
1	3192	537.355218970848	0.055574907477
1	3197	537.859672674347	0.055574907477
1	3202	540.297994429517	0.055574907477
1	3207	540.646650968777	0.055574907477
1	3212	542.423637273515	0.055574907477
1	3217	543.312954604132	0.055574907477
1	3222	543.963300506592	0.055574907477
1	3227	544.809117922017	0.055574907477
1	3232	549.736697650044	0.055574907477
1	3237	550.047563858169	0.055574907477
1	3242	550.433068206363	0.055574907477
1	3247	551.521786656983	0.055574907477
1	3252	551.72358309421	0.055574907477
1	3257	552.411478502993	0.055574907477
1	3262	552.752540037673	0.055574907477
1	3268	554.025213703195	0.055574907477
1	3273	554.555152144771	0.055574907477
1	3278	555.307240679982	0.055574907477
1	3283	558.149011561969	0.055574907477
1	3288	558.684658158236	0.055574907477
1	3293	558.934138601283	0.055574907477
1	3298	559.884447989298	0.055574907477
1	3303	560.203374960297	0.055574907477
1	3310	560.712793263693	0.055574907477
1	3313	560.76836817117	0.057126852014
1	3318	563.050378947891	0.055574907477
1	3323	563.4854871965	0.055574907477
1	3328	563.572429040311	0.055574907477
1	3333	564.047333747747	0.055574907477
1	3338	564.466211827382	0.055574907477
1	3343	566.410350912545	0.055574907477
1	3348	566.646903565547	0.055574907477
1	3353	567.521739987354	0.055574907477
1	3358	568.113811753584	0.055574907477
1	3363	569.990183858901	0.055574907477
1	3368	570.246074889432	0.055574907477
1	3373	571.142709625608	0.055574907477
1	3378	572.962104540845	0.055574907477
1	3383	573.398436405884	0.055574907477
1	3388	573.831638139353	0.055574907477
1	3395	574.91433985655	0.055574907477
1	3398	574.969914764027	0.077833392733
1	3403	575.282043787682	0.055574907477
1	3408	577.335145604754	0.055574907477
1	3413	578.396236396651	0.055574907477
1	3418	579.223204204185	0.055574907477
1	3423	581.176536538627	0.055574907477
1	3428	582.680631195498	0.055574907477
1	3433	583.7925191019	0.055574907477
1	3438	584.275828275533	0.055574907477
1	3443	584.410142948485	0.055574907477
1	3448	584.879398328043	0.055574907477
1	3453	586.609403258984	0.055574907477
1	3458	586.888339505653	0.055574907477
1	3463	588.15972182368	0.055574907477
1	3468	588.492650794927	0.055574907477
1	3473	589.781847156538	0.055574907477
1	3478	589.96348744071	0.055574907477
1	3483	591.084332778472	0.055574907477
1	3488	592.330251447701	0.055574907477
1	3495	593.633919671434	0.055574907477
1	3498	593.689494578911	0.062788111419
1	3503	595.721301038897	0.055574907477
1	3508	595.86645483266	0.055574907477
1	3513	596.261223199911	0.055574907477
1	3519	596.44591006382	0.09461652662
1	3524	597.129015780365	0.055574907477
1	3529	598.102730657131	0.055574907477
1	3534	598.418337864808	0.055574907477
1	3539	598.860274716804	0.055574907477
1	3544	599.027850473629	0.055574907477
1	3549	599.558129353019	0.055574907477
1	3554	600.740370546876	0.055574907477
1	3559	601.027404932503	0.055574907477
1	3564	601.530669575547	0.055574907477
1	3569	601.758828371345	0.055574907477
1	3574	603.028826003886	0.055574907477
1	3579	603.246433397137	0.055574907477
1	3584	603.978188153526	0.055574907477
1	3589	606.629336491474	0.055574907477
1	3594	606.985228798385	0.055574907477
1	3599	607.066028504369	0.055574907477
1	3604	608.359523809842	0.055574907477
1	3609	609.727360055635	0.055574907477
1	3614	610.264091155341	0.055574907477
1	3619	611.207933876639	0.055574907477
1	3624	611.823873505863	0.055574907477
1	3629	612.027299094929	0.055574907477
1	3634	612.176859813359	0.055574907477
1	3639	613.252580762916	0.055574907477
1	3644	614.025085499449	0.055574907477
1	3649	615.460083347296	0.055574907477
1	3654	615.96849215621	0.055574907477
1	3659	616.629284047685	0.055574907477
1	3664	617.773682421604	0.055574907477
1	3669	618.217730865083	0.055574907477
1	3674	618.693509672112	0.055574907477
1	3679	619.479344658802	0.055574907477
1	3684	622.481893166115	0.055574907477
1	3689	623.191284131098	0.055574907477
1	3694	623.670501585437	0.055574907477
1	3699	623.768156095305	0.055574907477
1	3706	623.975901775078	0.055574907477
1	3709	624.031476682555	0.075485505155
1	3714	625.446505203442	0.055574907477
1	3719	626.025932940361	0.055574907477
1	3724	627.291452074216	0.055574907477
1	3729	628.07647065663	0.055574907477
1	3734	629.630859289843	0.055574907477
1	3741	630.197667893481	0.055574907477
1	3746	630.253242800958	0.082557386
1	3749	630.308817708435	0.110048091339
1	3754	630.91117587024	0.055574907477
1	3759	631.349972006903	0.055574907477
1	3764	631.457037756438	0.055574907477
1	3770	632.654018740334	0.055574907477
1	3775	633.379594788853	0.055574907477
1	3780	634.563710257158	0.055574907477
1	3785	634.818978521738	0.055574907477
1	3790	635.236791367562	0.055574907477
1	3795	637.499739550941	0.055574907477
1	3800	638.072545306607	0.055574907477
1	3805	639.691450570241	0.055574907477
1	3810	640.138695146605	0.055574907477
1	3815	640.355098419711	0.055574907477
1	3820	640.863207878304	0.055574907477
1	3825	641.132139210743	0.055574907477
1	3830	642.15159027005	0.055574907477
1	3835	642.404756705742	0.055574907477
1	3840	643.455594911025	0.055574907477
1	3845	643.73396617649	0.055574907477
1	3850	644.337005070379	0.055574907477
1	3855	645.691109933899	0.055574907477
1	3860	646.86241595324	0.055574907477
1	3865	649.034071659598	0.055574907477
1	3870	649.682007918331	0.055574907477
1	3875	650.870917963849	0.055574907477
1	3880	653.125411774272	0.055574907477
1	3885	653.356447317723	0.055574907477
1	3890	653.809770633108	0.055574907477
1	3897	654.342872550601	0.055574907477
1	3900	654.398447458078	0.068999453774
1	3905	655.240808354863	0.055574907477
1	3910	655.970492740327	0.055574907477
1	3915	656.312893445031	0.055574907477
1	3920	657.034586066873	0.055574907477
1	3925	657.294392721813	0.055574907477
1	3930	660.247595636472	0.055574907477
1	3935	660.998709124682	0.055574907477
1	3940	661.495483190084	0.055574907477
1	3945	661.724620922019	0.055574907477
1	3950	663.327726454582	0.055574907477
1	3955	664.200565893587	0.055574907477
1	3960	666.678350592809	0.055574907477
1	3965	666.903867171955	0.055574907477
1	3970	667.708410165978	0.055574907477
1	3975	669.185441756067	0.055574907477
1	3980	669.459333310154	0.055574907477
1	3985	670.668846405401	0.055574907477
1	3990	671.931723807309	0.055574907477
1	3995	673.32431471325	0.055574907477
1	4000	673.568403818629	0.055574907477
1	4005	676.094440109816	0.055574907477
1	4010	676.73516118839	0.055574907477
1	4015	677.869701486663	0.055574907477
1	4021	678.054388350572	0.138810912123
1	4026	679.384394787453	0.055574907477
1	4031	680.01887398313	0.055574907477
1	4036	680.56567933821	0.055574907477
1	4043	681.597366170909	0.055574907477
1	4046	681.652941078386	0.103048196857
1	4051	682.078257172125	0.055574907477
1	4056	682.140371554259	0.055574907477
1	4061	682.572420965142	0.055574907477
1	4066	682.634937520775	0.055574907477
1	4071	683.413297931782	0.055574907477
1	4076	686.985231842325	0.055574907477
1	4081	687.722330513521	0.055574907477
1	4086	687.884060843521	0.055574907477
1	4093	688.725313576975	0.055574907477
1	4096	688.780888484452	0.064318415815
1	4101	689.917638837295	0.055574907477
1	4108	691.133460515925	0.055574907477
1	4111	691.189035423402	0.069058639333
1	4116	691.882198595645	0.055574907477
1	4121	692.650861725929	0.055574907477
1	4126	694.7923319036	0.055574907477
1	4135	697.172066981974	0.055574907477
1	4138	697.227641889451	0.095461587332
1	4141	697.283216796928	0.146039320372
1	4146	699.249015095561	0.055574907477
1	4151	700.256855793917	0.055574907477
1	4156	700.51612134165	0.055574907477
1	4161	700.589773449425	0.055574907477
1	4168	701.091802374122	0.055574907477
1	4171	701.147377281599	0.057340254646
1	4176	702.084681583317	0.055574907477
1	4181	702.248464079931	0.055574907477
1	4186	702.578433745927	0.055574907477
1	4191	702.960416520091	0.055574907477
1	4196	703.874153054791	0.055574907477
1	4201	705.828711595802	0.055574907477
1	4206	705.939212335032	0.055574907477
1	4211	706.702711124736	0.055574907477
1	4216	708.392258809721	0.055574907477
1	4221	709.331490079231	0.055574907477
1	4226	709.740812808784	0.055574907477
1	4231	710.392243030334	0.055574907477
1	4236	710.987670072871	0.055574907477
1	4241	711.175900781517	0.055574907477
1	4246	711.32379722103	0.055574907477
1	4251	711.79972646232	0.055574907477
1	4256	712.418560339705	0.055574907477
1	4261	712.563053817166	0.055574907477
1	4266	714.673468413232	0.055574907477
1	4272	715.110199147444	0.055574907477
1	4277	715.345279701189	0.055574907477
1	4282	715.474832126136	0.055574907477
1	4287	717.252393172183	0.055574907477
1	4292	717.834382079578	0.055574907477
1	4297	718.154084312631	0.055574907477
1	4302	718.718304565676	0.055574907477
1	4307	719.289191865711	0.055574907477
1	4312	719.414908639312	0.055574907477
1	4317	720.218429615786	0.055574907477
1	4322	720.604560209009	0.055574907477
1	4327	720.743726285157	0.055574907477
1	4334	721.235520280636	0.055574907477
1	4337	721.291095188113	0.069768070411
1	4342	723.799776611842	0.055574907477
1	4347	724.398368120698	0.055574907477
1	4352	724.942553756244	0.055574907477
1	4357	725.411550434987	0.055574907477
1	4362	725.560165007446	0.055574907477
1	4367	725.891964809844	0.055574907477
1	4372	727.98587974069	0.055574907477
1	4377	728.590589692674	0.055574907477
1	4382	730.907556961079	0.055574907477
1	4387	731.041160091008	0.055574907477
1	4392	732.218238499296	0.055574907477
1	4397	733.367369172983	0.055574907477
1	4404	734.932066027596	0.055574907477
1	4407	734.987640935073	0.070046628499
1	4412	735.089293012966	0.055574907477
1	4417	737.614744970843	0.055574907477
1	4422	737.865966082852	0.055574907477
1	4427	738.280005936871	0.055574907477
1	4432	740.144572674307	0.055574907477
1	4439	740.40665502563	0.055574907477
1	4442	740.462229933107	0.065993365446
1	4447	741.750926820941	0.055574907477
1	4452	742.660203147168	0.055574907477
1	4457	743.838407899655	0.055574907477
1	4462	743.897672857865	0.055574907477
1	4467	744.432364314282	0.055574907477
1	4472	744.835375447201	0.055574907477
1	4477	745.003468178477	0.055574907477
1	4482	746.189581115417	0.055574907477
1	4489	747.711310714215	0.055574907477
1	4492	747.766885621692	0.100245232394
1	4499	748.481032862619	0.055574907477
1	4502	748.536607770096	0.090282673602
1	4507	749.327787666416	0.055574907477
1	4512	749.681319512965	0.055574907477
1	4517	749.806421759209	0.055574907477
1	4523	752.620427909835	0.055574907477
1	4528	753.850860233705	0.055574907477
1	4533	754.742919705328	0.055574907477
1	4538	754.876036648007	0.055574907477
1	4543	755.830356814348	0.055574907477
1	4548	757.074100602785	0.055574907477
1	4553	757.159683783691	0.055574907477
1	4558	757.585008188631	0.055574907477
1	4563	759.07822879235	0.055574907477
1	4568	759.352716401889	0.055574907477
1	4573	759.561459144388	0.055574907477
1	4578	760.629378939704	0.055574907477
1	4583	760.715076221905	0.055574907477
1	4588	761.017813149712	0.055574907477
1	4593	761.425293875202	0.055574907477
1	4598	762.054480823122	0.055574907477
1	4603	762.218047188722	0.055574907477
1	4608	764.12060488531	0.055574907477
1	4613	765.613704210592	0.055574907477
1	4618	765.815791970655	0.055574907477
1	4625	766.000134268277	0.055574907477
1	4628	766.055709175754	0.108295443355
1	4633	768.083587452297	0.055574907477
1	4638	768.302389708475	0.055574907477
1	4643	768.490677484956	0.055574907477
1	4648	769.538720546499	0.055574907477
1	4653	770.347288300159	0.055574907477
1	4658	770.427850019358	0.055574907477
1	4663	771.063564094377	0.055574907477
1	4668	771.7389001924	0.055574907477
1	4675	772.163195806987	0.055574907477
1	4678	772.218770714464	0.06431388407
1	4683	772.645590734897	0.055574907477
1	4688	773.455279512496	0.055574907477
1	4693	773.920707753675	0.055574907477
1	4698	774.85252435487	0.055574907477
1	4703	775.505282681764	0.055574907477
1	4708	775.63833557719	0.055574907477
1	4715	776.184444689898	0.055574907477
1	4718	776.240019597375	0.105389742725
1	4723	777.556335958989	0.055574907477
1	4728	777.962056592993	0.055574907477
1	4733	778.51432796146	0.055574907477
1	4738	778.667626703548	0.055574907477
1	4743	779.496526569889	0.055574907477
1	4748	780.37249123503	0.055574907477
1	4753	780.760877925388	0.055574907477
1	4760	780.933832369424	0.055574907477
1	4763	780.989407276901	0.061572399772
1	4768	781.488880848683	0.055574907477
1	4774	781.690327635763	0.055574907477
1	4779	782.124915729971	0.055574907477
1	4784	783.376234164733	0.055574907477
1	4791	784.618172897449	0.055574907477
1	4794	784.673747804926	0.078404139733
1	4799	785.850658496406	0.055574907477
1	4804	786.531213884323	0.055574907477
1	4809	787.088803230665	0.055574907477
1	4814	787.359046724768	0.055574907477
1	4819	787.955590687035	0.055574907477
1	4824	788.267302246738	0.055574907477
1	4829	788.617560632445	0.055574907477
1	4834	789.358220718357	0.055574907477
1	4839	789.696973892088	0.055574907477
1	4844	789.784786771092	0.055574907477
1	4849	790.088863400452	0.055574907477
1	4854	790.452361108137	0.055574907477
1	4859	791.126871595402	0.055574907477
1	4864	792.553383134607	0.055574907477
1	4869	792.754040156937	0.055574907477
1	4874	792.826358124745	0.055574907477
1	4879	793.791986836208	0.055574907477
1	4884	794.602953709259	0.055574907477
1	4889	796.136385587628	0.055574907477
1	4894	796.410083555522	0.055574907477
1	4899	797.089425851492	0.055574907477
1	4904	798.627614915008	0.055574907477
1	4909	801.001885433595	0.055574907477
1	4914	801.455575688576	0.055574907477
1	4919	801.604154389601	0.055574907477
1	4924	802.277201854016	0.055574907477
1	4929	803.108810205573	0.055574907477
1	4934	807.31284737857	0.055574907477
1	4939	808.633389034987	0.055574907477
1	4944	810.082448360274	0.055574907477
1	4949	810.32563779571	0.055574907477
1	4954	812.078832520328	0.055574907477
1	4959	812.489535663885	0.055574907477
1	4964	812.746217807316	0.055574907477
1	4969	812.841276215065	0.055574907477
1	4974	813.902688339248	0.055574907477
1	4979	816.429136637936	0.055574907477
1	4984	816.725662884556	0.055574907477
1	4989	817.039773208172	0.055574907477
1	4994	818.08975629809	0.055574907477
1	4999	818.580985041664	0.055574907477
1	5004	819.776191609021	0.055574907477
1	5009	820.942278646517	0.055574907477
1	5014	821.415104796666	0.055574907477
1	5019	823.712556195133	0.055574907477
1	5025	824.001192743141	0.055574907477
1	5030	824.092683484102	0.055574907477
1	5035	825.307129855632	0.055574907477
1	5040	826.125120770022	0.055574907477
1	5045	827.193771644043	0.055574907477
1	5050	828.650774645309	0.055574907477
1	5055	832.597245622198	0.055574907477
1	5060	833.385395759493	0.055574907477
1	5065	833.587887935594	0.055574907477
1	5072	834.302982932937	0.055574907477
1	5075	834.358557840414	0.082186678372
1	5080	834.848356467549	0.055574907477
1	5085	835.123946441173	0.055574907477
1	5090	835.502327296926	0.055574907477
1	5095	835.919406595792	0.055574907477
1	5100	837.631690864127	0.055574907477
1	5105	838.064056240468	0.055574907477
1	5110	839.299120898135	0.055574907477
1	5115	839.366562507043	0.055574907477
1	5120	839.433454195767	0.055574907477
1	5125	839.497264092195	0.055574907477
1	5130	840.724340304761	0.055574907477
1	5135	841.010859919694	0.055574907477
1	5140	845.603361104097	0.055574907477
1	5145	849.822462639385	0.055574907477
1	5150	849.994516214802	0.055574907477
1	5155	850.172958291494	0.055574907477
1	5160	850.250159228583	0.055574907477
1	5165	850.764194357552	0.055574907477
1	5170	851.368831095118	0.055574907477
1	5175	851.787726017193	0.055574907477
1	5180	852.214490039517	0.055574907477
1	5185	852.312766670486	0.055574907477
1	5190	852.543633314502	0.055574907477
1	5195	855.47379032806	0.055574907477
1	5200	857.344460679001	0.055574907477
1	5205	857.518392370556	0.055574907477
1	5210	859.501885870864	0.055574907477
1	5215	861.818759251241	0.055574907477
1	5220	862.669643130132	0.055574907477
1	5225	863.14910077712	0.055574907477
1	5232	863.970426339815	0.055574907477
1	5235	864.026001247292	0.096418453474
1	5240	864.843584717667	0.055574907477
1	5245	867.493411077722	0.055574907477
1	5250	867.610654893382	0.055574907477
1	5257	868.214997779747	0.055574907477
1	5262	868.270572687224	0.080879730361
1	5265	868.326147594701	0.102007184461
1	5270	868.850631815001	0.055574907477
1	5276	870.126095291509	0.055574907477
1	5281	871.888685278527	0.055574907477
1	5286	872.131926104561	0.055574907477
1	5293	876.208285845865	0.055574907477
1	5296	876.263860753342	0.110587538564
1	5303	878.600708393629	0.055574907477
1	5306	878.656283301106	0.080057154916
1	5311	878.989450052816	0.055574907477
1	5316	879.368237170136	0.055574907477
1	5321	880.148124636434	0.055574907477
1	5326	880.252352378949	0.055574907477
1	5331	880.616325498054	0.055574907477
1	5336	881.013722906039	0.055574907477
1	5341	883.880626655979	0.055574907477
1	5346	886.038720418924	0.055574907477
1	5351	886.144723658532	0.055574907477
1	5356	886.407520248411	0.055574907477
1	5361	886.610593704427	0.055574907477
1	5366	886.736253773206	0.055574907477
1	5371	886.806040090208	0.055574907477
1	5376	886.912197083426	0.055574907477
1	5381	888.744542301834	0.055574907477
1	5386	889.154101778593	0.055574907477
1	5391	890.137760880723	0.055574907477
1	5396	890.744901224081	0.055574907477
1	5401	891.564931850467	0.055574907477
1	5406	892.85611956596	0.055574907477
1	5411	893.238439940765	0.055574907477
1	5416	893.536827033791	0.055574907477
1	5421	894.674333217725	0.055574907477
1	5426	895.176632644086	0.055574907477
1	5431	896.311882867974	0.055574907477
1	5436	896.412779783989	0.055574907477
1	5441	897.100242338767	0.055574907477
1	5446	897.220658312899	0.055574907477
1	5451	897.737199941553	0.055574907477
1	5456	897.797681375227	0.055574907477
1	5461	900.535062469884	0.055574907477
1	5466	900.78940566712	0.055574907477
1	5471	901.639570062368	0.055574907477
1	5476	901.993053274062	0.055574907477
1	5481	902.112750943244	0.055574907477
1	5486	903.56007505848	0.055574907477
1	5491	904.742297690206	0.055574907477
1	5496	905.861513562444	0.055574907477
1	5501	909.503938832919	0.055574907477
1	5506	910.298769717286	0.055574907477
1	5511	913.035169006768	0.055574907477
1	5518	913.216942521451	0.055574907477
1	5521	913.272517428928	0.05957904052
1	5527	913.546206232948	0.055574907477
1	5532	913.785208012213	0.055574907477
1	5537	914.517352499272	0.055574907477
1	5542	915.060018543947	0.055574907477
1	5547	915.460847424392	0.055574907477
1	5552	915.565035915594	0.055574907477
1	5557	916.669891068869	0.055574907477
1	5562	916.928691725293	0.055574907477
1	5567	917.169558616756	0.055574907477
1	5572	918.413904655172	0.055574907477
1	5577	918.597158111214	0.055574907477
1	5582	919.419794448204	0.055574907477
1	5587	920.021447523419	0.055574907477
1	5592	920.340340952164	0.055574907477
1	5597	921.363373274403	0.055574907477
1	5604	921.605024690298	0.055574907477
1	5607	921.660599597775	0.096880944429
1	5612	924.01324891651	0.055574907477
1	5617	926.447267190261	0.055574907477
1	5622	926.730756537234	0.055574907477
1	5627	927.171398267191	0.055574907477
1	5632	927.383127280044	0.055574907477
1	5637	927.988512097128	0.055574907477
1	5642	928.278570558109	0.055574907477
1	5647	928.468944903021	0.055574907477
1	5652	929.081615939713	0.055574907477
1	5657	929.800939024963	0.055574907477
1	5662	930.673768110361	0.055574907477
1	5667	930.975039782989	0.055574907477
1	5672	932.098304525444	0.055574907477
1	5677	933.011900156448	0.055574907477
1	5682	933.226440471277	0.055574907477
1	5687	933.735496967671	0.055574907477
1	5692	934.44916413282	0.055574907477
1	5697	935.189545890123	0.055574907477
1	5702	937.044558022745	0.055574907477
1	5707	937.222372973934	0.055574907477
1	5712	937.801528690698	0.055574907477
1	5717	938.877904192704	0.055574907477
1	5722	940.505480210055	0.055574907477
1	5727	942.059070319922	0.055574907477
1	5732	942.973928150501	0.055574907477
1	5737	943.707534246437	0.055574907477
1	5742	944.564980584586	0.055574907477
1	5747	945.528868822685	0.055574907477
1	5752	945.875451138238	0.055574907477
1	5757	946.157849085307	0.055574907477
1	5762	946.217643090104	0.055574907477
1	5767	946.518926541453	0.055574907477
1	5772	946.79845569842	0.055574907477
1	5778	949.384233856453	0.055574907477
1	5783	950.688026740321	0.055574907477
1	5788	950.82502975078	0.055574907477
1	5793	951.467857563633	0.055574907477
1	5798	954.287569529634	0.055574907477
1	5803	956.26895247551	0.055574907477
1	5810	956.826724236166	0.055574907477
1	5813	956.882299143643	0.081381297347
1	5818	957.109082690535	0.055574907477
1	5823	957.602638146407	0.055574907477
1	5828	962.288482317887	0.055574907477
1	5833	963.37467708849	0.055574907477
1	5838	964.006030883217	0.055574907477
1	5843	965.106823848765	0.055574907477
1	5848	968.380132547552	0.055574907477
1	5853	970.071020700265	0.055574907477
1	5858	972.154397509553	0.055574907477
1	5863	975.349158604846	0.055574907477
1	5868	975.552491171966	0.055574907477
1	5873	975.946051436933	0.055574907477
1	5878	976.178324247243	0.055574907477
1	5883	976.334210076691	0.055574907477
1	5888	976.570613284833	0.055574907477
1	5893	980.26854712284	0.055574907477
1	5898	981.481107771508	0.055574907477
1	5903	982.095799312551	0.055574907477
1	5908	982.473247492906	0.055574907477
1	5913	983.556380090663	0.055574907477
1	5918	983.820450473211	0.055574907477
1	5923	983.878190394539	0.055574907477
1	5928	984.075124292829	0.055574907477
1	5933	984.868577798035	0.055574907477
1	5938	985.290506826039	0.055574907477
1	5943	986.048063636795	0.055574907477
1	5948	986.249028957169	0.055574907477
1	5953	987.879920719685	0.055574907477
1	5958	988.341184915996	0.055574907477
1	5963	993.161077952523	0.055574907477
1	5968	994.111243248662	0.055574907477
1	5973	994.360186737849	0.055574907477
1	5978	995.199444032537	0.055574907477
1	5983	995.281321878296	0.055574907477
1	5988	999.040486008206	0.055574907477
1	5993	999.233526187658	0.055574907477
2	5	1.396384888259	0
2	10	2.095403175158	0
2	17	2.928178946057	0
2	20	2.983753853534	0.013098695242
2	25	3.34955018471	0
2	30	4.006380894527	0
2	35	6.649254488017	0
2	40	6.867095835825	0
2	45	7.692429896128	0
2	50	8.038149391731	0
2	55	9.03873690186	0
2	60	9.448485616389	0
2	65	9.932349341837	0
2	70	10.081506363023	0
2	75	10.856286317682	0
2	80	11.989552657558	0
2	85	13.711003634568	0
2	90	15.476454249967	0
2	95	15.61677626584	0
2	100	15.859768208931	0
2	105	16.549878564106	0
2	110	16.693505483788	0
2	115	17.382811899071	0
2	120	17.770054096873	0
2	125	18.008779182346	0
2	130	19.038256297182	0
2	135	19.567409958378	0
2	140	20.841930332428	0
2	145	23.165212674327	0
2	150	23.586089101468	0
2	155	25.537668847703	0
2	160	26.896632930463	0
2	165	28.111810182457	0
2	170	28.274677035327	0
2	175	28.707943549992	0
2	180	29.213410547239	0
2	185	29.319887260775	0
2	190	29.779632829196	0
2	195	30.572328807451	0
2	200	31.207087334419	0
2	205	31.64273047186	0
2	210	33.512386780591	0
2	215	34.533626566052	0
2	220	34.843586350633	0
2	225	35.175604281443	0
2	230	36.255139028887	0
2	235	36.597933799586	0
2	240	37.8286962152	0
2	245	38.714276327865	0
2	252	39.262852766865	0
2	256	39.447539630774	0.145641739087
2	261	40.166374913106	0
2	266	40.875105272123	0
2	271	41.221856893831	0
2	276	44.789148719459	0
2	281	46.299686376524	0
2	286	46.731458206133	0
2	291	47.575310128214	0
2	298	47.712638067812	0
2	301	47.768212975289	0.033728824692
2	306	47.831531752935	0
2	311	48.473640965691	0
2	316	48.576492253044	0
2	321	49.153634027754	0
2	326	50.811550015425	0
2	333	51.278790569758	0
2	336	51.334365477235	0.00060984223
2	341	51.507371405055	0
2	346	51.715692419413	0
2	351	52.128708722521	0
2	356	52.588402778014	0
2	363	52.916014698643	0
2	366	52.97158960612	0.024344535766
2	371	53.429506144895	0
2	376	53.919456858331	0
2	381	54.796064525633	0
2	386	55.655143123744	0
2	391	57.129600971585	0
2	396	58.281062185461	0
2	401	59.48098997193	0
2	406	60.444774589987	0
2	411	61.045328043746	0
2	416	62.362548266926	0
2	421	63.442914251302	0
2	426	63.990037276857	0
2	431	64.134756726838	0
2	436	64.463299493974	0
2	441	67.167415816663	0
2	446	68.102924443259	0
2	451	68.690077225387	0
2	456	68.832685638652	0
2	461	69.243915039601	0
2	466	71.270876054881	0
2	471	71.451967691646	0
2	476	71.588529916922	0
2	481	71.972030760048	0
2	486	73.901597537339	0
2	491	74.097121084197	0
2	498	75.704819896455	0
2	501	75.760394803932	0.039170769599
2	507	79.632608399969	0
2	512	82.914812391411	0
2	517	85.225421776415	0
2	522	85.348310638725	0
2	527	85.644458664815	0
2	532	87.046841883285	0
2	537	87.213570069231	0
2	544	87.580916220469	0
2	547	87.636491127946	0.016588410379
2	552	88.330319592001	0
2	557	88.537063579952	0
2	562	89.14819860168	0
2	567	90.104410605412	0
2	572	90.715042289172	0
2	577	91.01570559721	0
2	582	91.361867706213	0
2	587	91.58799361902	0
2	592	91.924881871566	0
2	597	92.73044917775	0
2	604	92.842037727593	0
2	607	92.89761263507	0.034901082011
2	612	93.959267151102	0
2	617	94.057417604236	0
2	622	94.544842349049	0
2	627	94.995653391125	0
2	632	95.518503693882	0
2	637	96.03289543175	0
2	642	96.822164231179	0
2	647	97.631452133986	0
2	652	97.968734830988	0
2	657	98.101644326162	0
2	662	98.209003672207	0
2	667	98.561254611293	0
2	672	99.950397602618	0
2	677	100.565353769699	0
2	682	101.434282076843	0
2	687	101.631146193219	0
2	692	103.237100503839	0
2	697	104.01041225042	0
2	702	104.998031943219	0
2	707	105.612033594437	0
2	712	106.278479346135	0
2	717	107.997460625078	0
2	722	108.709981486412	0
2	727	109.184310804485	0
2	732	109.348808465205	0
2	737	110.296158027905	0
2	742	111.150678042645	0
2	747	112.025449059997	0
2	752	113.214364354928	0
2	758	113.399051218837	0.109721181021
2	763	115.364046788794	0
2	768	116.33637799443	0
2	773	116.592775782659	0
2	778	117.087477597675	0
2	783	117.578916925705	0
2	788	118.853211579194	0
2	793	119.781335503799	0
2	798	121.187387192351	0
2	803	124.059043054673	0
2	808	125.031275700636	0
2	813	125.901828529566	0
2	818	127.513507155906	0
2	823	127.627262610648	0
2	828	127.717946539733	0
2	833	129.572994752617	0
2	840	129.829263384626	0
2	843	129.884838292103	0.054979900318
2	848	132.278717152833	0
2	853	132.358734347025	0
2	858	133.085013488739	0
2	863	134.534438145684	0
2	868	134.807572910923	0
2	873	135.093618943117	0
2	878	137.179063276709	0
2	885	137.706059517773	0
2	888	137.76163442525	0.005514924637
2	893	138.474686614147	0
2	898	141.656819589073	0
2	903	142.298516913576	0
2	908	144.491314751006	0
2	913	147.565287869859	0
2	918	151.304860486224	0
2	923	151.678950098122	0
2	928	151.957058266048	0
2	933	152.833654975632	0
2	940	153.276834557907	0
2	943	153.332409465384	0.032117233512
2	948	154.670326443324	0
2	953	155.142516625633	0
2	958	155.549003677527	0
2	963	155.651674569549	0
2	968	156.062615164531	0
2	973	157.496813832882	0
2	978	159.61684209962	0
2	983	159.878706515623	0
2	988	161.894295374914	0
2	993	162.530529086731	0
2	998	162.663154588562	0
2	1003	163.77253684758	0
2	1009	163.957223711489	0.060883974978
2	1014	165.218005831487	0
2	1019	166.44864673862	0
2	1024	166.726336042133	0
2	1029	166.868547480614	0
2	1034	167.019143870792	0
2	1039	167.307195676275	0
2	1044	167.696233189504	0
2	1049	167.783076024612	0
2	1054	169.113506456457	0
2	1061	169.458906712871	0
2	1064	169.514481620348	0.000865297805
2	1069	173.162093401795	0
2	1074	173.751711516175	0
2	1079	173.982847282875	0
2	1084	174.273553558652	0
2	1089	174.99883171362	0
2	1094	176.00488920453	0
2	1099	176.321245720377	0
2	1104	177.613684958728	0
2	1109	177.843155424943	0
2	1114	179.64070314498	0
2	1119	182.812838732423	0
2	1124	183.57728281956	0
2	1129	184.672781362293	0
2	1134	184.955037183702	0
2	1141	185.299394744405	0
2	1144	185.354969651882	0.011125447479
2	1149	187.092031917495	0
2	1154	188.050538000156	0
2	1159	188.820294584937	0
2	1164	190.026933769245	0
2	1169	191.619669452102	0
2	1174	194.073545543153	0
2	1179	194.254994499042	0
2	1184	196.320129468195	0
2	1189	197.109312476289	0
2	1194	198.008922094497	0
2	1199	198.38944704245	0
2	1204	198.680307929105	0
2	1209	200.439762711982	0
2	1214	202.799720536315	0
2	1219	203.652113657627	0
2	1224	204.302288881622	0
2	1229	206.240260438578	0
2	1234	206.475638393458	0
2	1239	207.063302552186	0
2	1244	208.112610828319	0
2	1249	208.351709220118	0
2	1254	208.442743592433	0
2	1262	209.391554079992	0
2	1267	209.447128987469	0.006424627169
2	1270	209.502703894946	0.013887580599
2	1275	210.11233474522	0
2	1280	211.989848210898	0
2	1285	212.210688249479	0
2	1290	212.583144944286	0
2	1295	212.685212113544	0
2	1300	213.238110096019	0
2	1305	214.237236595736	0
2	1310	215.424951876118	0
2	1315	216.362071514932	0
2	1320	217.858792423142	0
2	1325	220.420186498465	0
2	1330	220.794439713635	0
2	1335	221.042509727155	0
2	1340	221.234272403456	0
2	1345	223.161150242031	0
2	1350	223.624118406735	0
2	1355	225.802236896162	0
2	1360	226.056476357661	0
2	1365	226.693667907147	0
2	1370	227.887054669489	0
2	1375	228.060762533727	0
2	1380	228.711554025047	0
2	1385	228.825191070879	0
2	1390	228.993581043671	0
2	1395	229.41164537258	0
2	1400	229.915309504192	0
2	1405	230.117127682302	0
2	1410	230.3507591447	0
2	1415	230.467229163827	0
2	1420	230.650537631335	0
2	1425	231.230224184928	0
2	1430	231.684738261	0
2	1435	232.233231301695	0
2	1440	232.793261846081	0
2	1445	234.094458310297	0
2	1450	234.403467483736	0
2	1455	234.577183948224	0
2	1460	234.813002333426	0
2	1465	235.063888678109	0
2	1470	236.824454956559	0
2	1475	238.295202833097	0
2	1480	239.560623667119	0
2	1485	239.690672426802	0
2	1490	239.8063697957	0
2	1495	240.928147001756	0
2	1500	241.094883467129	0
2	1505	241.743839947702	0
2	1511	242.105739625305	0
2	1516	242.228128892335	0
2	1523	242.988573462641	0
2	1526	243.044148370118	0.027548751812
2	1531	245.682445737932	0
2	1536	245.914255893909	0
2	1541	246.913975670463	0
2	1546	247.130245581693	0
2	1551	249.612098039125	0
2	1556	250.618357629019	0
2	1561	251.901214129961	0
2	1568	254.192715217187	0
2	1573	254.248290124664	0.039002683497
2	1576	254.303865032141	0.038437455407
2	1581	254.486711180202	0
2	1586	256.039601734065	0
2	1591	256.173467402689	0
2	1596	256.542255843486	0
2	1601	258.189053934744	0
2	1606	258.5406804317	0
2	1611	258.827995342504	0
2	1616	258.934123688527	0
2	1621	260.721787140724	0
2	1626	262.093781933545	0
2	1631	262.443359156714	0
2	1636	262.646399303119	0
2	1641	263.119542856583	0
2	1646	263.502205970944	0
2	1651	266.929330926298	0
2	1658	268.007694801826	0
2	1661	268.063269709303	0.003369885177
2	1666	268.348362576455	0
2	1671	270.088776220915	0
2	1676	270.722435061636	0
2	1681	270.957907477378	0
2	1686	271.820618940148	0
2	1691	273.451429862912	0
2	1696	274.293684009286	0
2	1703	276.105916520413	0
2	1706	276.16149142789	0.047562894732
2	1711	276.383738165507	0
2	1716	277.184717360493	0
2	1721	277.411472301996	0
2	1726	279.172925927725	0
2	1731	279.281515470406	0
2	1736	279.350876428961	0
2	1741	280.774661608046	0
2	1746	281.027332700799	0
2	1751	281.520096164168	0
2	1756	281.580446468508	0
2	1762	282.499611594134	0
2	1767	284.134448139329	0
2	1772	286.00020706512	0
2	1777	286.223592563049	0
2	1782	286.447504256634	0
2	1787	286.76298762221	0
2	1792	287.188630464911	0
2	1797	288.918156195563	0
2	1802	289.214822235854	0
2	1807	290.523983238424	0
2	1812	290.877235918512	0
2	1817	292.447697472357	0
2	1822	292.901851631529	0
2	1827	293.531153922192	0
2	1832	293.974177817713	0
2	1837	294.225925446145	0
2	1842	295.032469426812	0
2	1847	295.422921536421	0
2	1852	297.529519329353	0
2	1857	297.99832917341	0
2	1862	298.291231208984	0
2	1867	299.579379369932	0
2	1872	299.67193153149	0
2	1877	299.968672990728	0
2	1882	301.740873117141	0
2	1887	302.078484644244	0
2	1892	302.474575464567	0
2	1899	302.994516323478	0
2	1902	303.050091230955	0.018395562608
2	1907	303.395082069942	0
2	1912	303.572985528148	0
2	1917	305.181467164106	0
2	1922	306.678005035635	0
2	1927	306.934751688241	0
2	1932	307.239905185295	0
2	1937	307.72465840649	0
2	1942	307.846874729803	0
2	1947	308.693084590069	0
2	1952	308.764352939926	0
2	1957	308.971874799335	0
2	1962	310.129496380909	0
2	1967	310.234397239271	0
2	1972	310.796775640293	0
2	1977	311.884225070299	0
2	1984	312.624080516331	0
2	1987	312.679655423808	0.006782999105
2	1994	312.838242429698	0
2	1997	312.893817337175	0.04256615966
2	2002	314.489860624168	0
2	2007	314.5454476151	0
2	2013	314.730134479009	0.030765077208
2	2018	314.823792148892	0
2	2023	316.158848660098	0
2	2028	316.31700479894	0
2	2033	317.269921188037	0
2	2038	318.046339774789	0
2	2043	318.477798309615	0
2	2048	318.66021436695	0
2	2053	320.127737292577	0
2	2058	320.950566975577	0
2	2063	321.706521392019	0
2	2068	322.337161730947	0
2	2073	322.832753650905	0
2	2078	323.384829697175	0
2	2083	323.970563422509	0
2	2088	325.63654613081	0
2	2093	326.229526039286	0
2	2098	328.215755072315	0
2	2103	331.007424279942	0
2	2110	332.825467613864	0
2	2113	332.881042521341	0.005311894142
2	2118	333.83792477902	0
2	2123	333.972396711811	0
2	2128	335.534421397461	0
2	2133	335.72787043829	0
2	2138	336.253951729537	0
2	2143	339.265794039969	0
2	2148	341.72460832788	0
2	2153	342.945430634297	0
2	2158	347.815525349372	0
2	2163	349.00173545007	0
2	2168	351.121029124394	0
2	2173	351.436519153068	0
2	2178	351.723990903535	0
2	2185	351.824946646008	0
2	2188	351.880521553485	0.017162765194
2	2193	352.583074917599	0
2	2198	352.785456839667	0
2	2203	354.221597654895	0
2	2208	356.458640173523	0
2	2213	357.892539569865	0
2	2218	359.361658738902	0
2	2223	359.485562979379	0
2	2228	359.764724065236	0
2	2233	359.825201506764	0
2	2238	360.612475030222	0
2	2243	360.868288967357	0
2	2248	361.063561384647	0
2	2253	361.833917679462	0
2	2258	361.91910699402	0
2	2264	362.847757207742	0
2	2269	363.479697869162	0
2	2274	366.22540466856	0
2	2279	366.377489234301	0
2	2284	366.468342351546	0
2	2289	367.794574281605	0
2	2294	368.168960339193	0
2	2299	369.175700166956	0
2	2304	370.105323692084	0
2	2309	371.297910283364	0
2	2314	372.47406733597	0
2	2319	373.121741850206	0
2	2324	373.251008781646	0
2	2329	374.186248637649	0
2	2334	374.733614847326	0
2	2339	375.682617222286	0
2	2344	375.951961631444	0
2	2351	376.32725104852	0
2	2354	376.382825955997	0.048033269618
2	2359	376.541194595953	0
2	2364	377.82151741399	0
2	2369	379.140290954962	0
2	2376	379.323401503809	0
2	2379	379.378976411286	0.026702297581
2	2384	379.624744050502	0
2	2389	380.061831805215	0
2	2394	380.928702468607	0
2	2399	382.196153881186	0
2	2404	383.290880540497	0
2	2409	383.382381960882	0
2	2416	384.250408844542	0
2	2419	384.305983752019	0.000859646649
2	2424	385.335204843362	0
2	2429	388.008297327755	0
2	2434	388.543179779953	0
2	2439	389.579032141127	0
2	2444	389.742499828001	0
2	2449	390.075103392948	0
2	2454	390.952593384524	0
2	2459	391.096277132343	0
2	2464	391.227550945162	0
2	2469	391.379518152106	0
2	2474	393.062917530304	0
2	2479	394.498721951838	0
2	2484	394.719246057179	0
2	2489	395.17107096807	0
2	2494	396.32375237845	0
2	2499	396.611102571496	0
2	2504	397.728181147085	0
2	2509	399.029746716308	0
2	2515	399.827422616935	0
2	2520	399.980593634122	0
2	2525	400.351972332141	0
2	2530	402.802544845775	0
2	2535	403.329834011178	0
2	2540	403.541852957655	0
2	2545	404.192887517308	0
2	2550	404.557942116368	0
2	2557	407.206645345853	0
2	2562	407.26222025333	0.029300643476
2	2565	407.317795160807	0.043913240062
2	2570	408.807748071303	0
2	2575	409.892698249694	0
2	2580	412.079940423831	0
2	2585	412.586128641708	0
2	2592	414.023976957405	0
2	2595	414.079551864882	0.033137438989
2	2600	415.032203599389	0
2	2607	419.911923348926	0
2	2610	419.967498256403	0.006160544389
2	2615	421.57501064581	0
2	2620	421.919469278508	0
2	2627	422.916244447449	0
2	2630	422.971819354926	0.010876055799
2	2635	423.846904150982	0
2	2640	424.487994563649	0
2	2645	425.195810332503	0
2	2650	427.913519701463	0
2	2655	429.14352828911	0
2	2660	429.689463381833	0
2	2665	430.185630570853	0
2	2670	431.697220738679	0
2	2675	433.777144556055	0
2	2680	437.221218778523	0
2	2685	438.085459533594	0
2	2690	438.821553011987	0
2	2695	438.934668372756	0
2	2700	439.649995309432	0
2	2705	441.07956584802	0
2	2710	441.462507942163	0
2	2715	443.511079600566	0
2	2720	444.920079565102	0
2	2725	445.135654741398	0
2	2730	446.041501866749	0
2	2735	446.466657187899	0
2	2740	446.934805860296	0
2	2745	447.162659206529	0
2	2750	450.121889366676	0
2	2755	450.364533953461	0
2	2760	452.22107121034	0
2	2766	452.724425157375	0
2	2773	453.372538773059	0
2	2776	453.428113680536	0.049511841336
2	2781	453.702491121885	0
2	2786	453.829132110239	0
2	2791	456.189980283976	0
2	2796	457.155672799214	0
2	2801	458.308496676409	0
2	2806	458.542746801172	0
2	2811	459.540914079244	0
2	2816	460.005070212424	0
2	2821	460.417583412188	0
2	2826	462.1651276682	0
2	2831	464.464844602064	0
2	2836	465.445587548566	0
2	2841	465.676472475906	0
2	2846	466.939667983913	0
2	2851	467.348721739716	0
2	2856	468.255441486287	0
2	2861	472.355529085941	0
2	2866	474.297416198403	0
2	2873	474.483102257771	0
2	2876	474.538677165248	0.042181190555
2	2881	474.814972588757	0
2	2886	475.05129234459	0
2	2891	476.467578041509	0
2	2896	477.945439472444	0
2	2901	479.010624682562	0
2	2906	481.177960756757	0
2	2911	482.746898014566	0
2	2916	483.520772326584	0
2	2921	485.854638320523	0
2	2926	486.353768323474	0
2	2931	488.579097503714	0
2	2936	488.671521781625	0
2	2941	489.088862785595	0
2	2946	489.377377821216	0
2	2951	490.243643206265	0
2	2956	491.276890312657	0
2	2961	491.498705689977	0
2	2966	491.743685016406	0
2	2971	492.38454500174	0
2	2976	492.594116182068	0
2	2981	494.70944254566	0
2	2986	496.237740815385	0
2	2991	497.489220707389	0
2	2996	498.179031465333	0
2	3001	498.817379094034	0
2	3006	499.029813000399	0
2	3011	501.320511914958	0
2	3017	501.557490552856	0
2	3022	502.220322796987	0
2	3027	502.278038967703	0
2	3032	502.618054414833	0
2	3037	505.582158795087	0
2	3042	505.818117966356	0
2	3047	506.736412331998	0
2	3052	507.109335742768	0
2	3057	508.358680142697	0
2	3062	508.56029223434	0
2	3067	510.29355448923	0
2	3072	510.774340984988	0
2	3077	511.622976337797	0
2	3082	511.780771371376	0
2	3087	515.754707782119	0
2	3092	517.429024107878	0
2	3097	517.946089357783	0
2	3102	520.683436571395	0
2	3107	524.392715670884	0
2	3112	524.661943483809	0
2	3117	525.3022177199	0
2	3122	525.721986644674	0
2	3127	526.730013204504	0
2	3132	527.534867376188	0
2	3137	527.858519989937	0
2	3142	528.699238065912	0
2	3147	529.046040194506	0
2	3152	529.4638705612	0
2	3157	530.679897316857	0
2	3162	531.83979633178	0
2	3167	532.558320347478	0
2	3172	534.273302730524	0
2	3179	535.626355336195	0
2	3182	535.681930243672	0.044475553152
2	3187	535.961368497784	0
2	3192	537.355218970848	0
2	3197	537.859672674347	0
2	3202	540.297994429517	0
2	3207	540.646650968777	0
2	3212	542.423637273515	0
2	3217	543.312954604132	0
2	3222	543.963300506592	0
2	3227	544.809117922017	0
2	3232	549.736697650044	0
2	3237	550.047563858169	0
2	3242	550.433068206363	0
2	3247	551.521786656983	0
2	3252	551.72358309421	0
2	3257	552.411478502993	0
2	3262	552.752540037673	0
2	3268	554.025213703195	0
2	3273	554.555152144771	0
2	3278	555.307240679982	0
2	3283	558.149011561969	0
2	3288	558.684658158236	0
2	3293	558.934138601283	0
2	3298	559.884447989298	0
2	3303	560.203374960297	0
2	3310	560.712793263693	0
2	3313	560.76836817117	0.001551944537
2	3318	563.050378947891	0
2	3323	563.4854871965	0
2	3328	563.572429040311	0
2	3333	564.047333747747	0
2	3338	564.466211827382	0
2	3343	566.410350912545	0
2	3348	566.646903565547	0
2	3353	567.521739987354	0
2	3358	568.113811753584	0
2	3363	569.990183858901	0
2	3368	570.246074889432	0
2	3373	571.142709625608	0
2	3378	572.962104540845	0
2	3383	573.398436405884	0
2	3388	573.831638139353	0
2	3395	574.91433985655	0
2	3398	574.969914764027	0.022258485256
2	3403	575.282043787682	0
2	3408	577.335145604754	0
2	3413	578.396236396651	0
2	3418	579.223204204185	0
2	3423	581.176536538627	0
2	3428	582.680631195498	0
2	3433	583.7925191019	0
2	3438	584.275828275533	0
2	3443	584.410142948485	0
2	3448	584.879398328043	0
2	3453	586.609403258984	0
2	3458	586.888339505653	0
2	3463	588.15972182368	0
2	3468	588.492650794927	0
2	3473	589.781847156538	0
2	3478	589.96348744071	0
2	3483	591.084332778472	0
2	3488	592.330251447701	0
2	3495	593.633919671434	0
2	3498	593.689494578911	0.007213203942
2	3503	595.721301038897	0
2	3508	595.86645483266	0
2	3513	596.261223199911	0
2	3519	596.44591006382	0.039041619143
2	3524	597.129015780365	0
2	3529	598.102730657131	0
2	3534	598.418337864808	0
2	3539	598.860274716804	0
2	3544	599.027850473629	0
2	3549	599.558129353019	0
2	3554	600.740370546876	0
2	3559	601.027404932503	0
2	3564	601.530669575547	0
2	3569	601.758828371345	0
2	3574	603.028826003886	0
2	3579	603.246433397137	0
2	3584	603.978188153526	0
2	3589	606.629336491474	0
2	3594	606.985228798385	0
2	3599	607.066028504369	0
2	3604	608.359523809842	0
2	3609	609.727360055635	0
2	3614	610.264091155341	0
2	3619	611.207933876639	0
2	3624	611.823873505863	0
2	3629	612.027299094929	0
2	3634	612.176859813359	0
2	3639	613.252580762916	0
2	3644	614.025085499449	0
2	3649	615.460083347296	0
2	3654	615.96849215621	0
2	3659	616.629284047685	0
2	3664	617.773682421604	0
2	3669	618.217730865083	0
2	3674	618.693509672112	0
2	3679	619.479344658802	0
2	3684	622.481893166115	0
2	3689	623.191284131098	0
2	3694	623.670501585437	0
2	3699	623.768156095305	0
2	3706	623.975901775078	0
2	3709	624.031476682555	0.019910597678
2	3714	625.446505203442	0
2	3719	626.025932940361	0
2	3724	627.291452074216	0
2	3729	628.07647065663	0
2	3734	629.630859289843	0
2	3741	630.197667893481	0
2	3746	630.253242800958	0.026982478523
2	3749	630.308817708435	0.054473183862
2	3754	630.91117587024	0
2	3759	631.349972006903	0
2	3764	631.457037756438	0
2	3770	632.654018740334	0
2	3775	633.379594788853	0
2	3780	634.563710257158	0
2	3785	634.818978521738	0
2	3790	635.236791367562	0
2	3795	637.499739550941	0
2	3800	638.072545306607	0
2	3805	639.691450570241	0
2	3810	640.138695146605	0
2	3815	640.355098419711	0
2	3820	640.863207878304	0
2	3825	641.132139210743	0
2	3830	642.15159027005	0
2	3835	642.404756705742	0
2	3840	643.455594911025	0
2	3845	643.73396617649	0
2	3850	644.337005070379	0
2	3855	645.691109933899	0
2	3860	646.86241595324	0
2	3865	649.034071659598	0
2	3870	649.682007918331	0
2	3875	650.870917963849	0
2	3880	653.125411774272	0
2	3885	653.356447317723	0
2	3890	653.809770633108	0
2	3897	654.342872550601	0
2	3900	654.398447458078	0.013424546297
2	3905	655.240808354863	0
2	3910	655.970492740327	0
2	3915	656.312893445031	0
2	3920	657.034586066873	0
2	3925	657.294392721813	0
2	3930	660.247595636472	0
2	3935	660.998709124682	0
2	3940	661.495483190084	0
2	3945	661.724620922019	0
2	3950	663.327726454582	0
2	3955	664.200565893587	0
2	3960	666.678350592809	0
2	3965	666.903867171955	0
2	3970	667.708410165978	0
2	3975	669.185441756067	0
2	3980	669.459333310154	0
2	3985	670.668846405401	0
2	3990	671.931723807309	0
2	3995	673.32431471325	0
2	4000	673.568403818629	0
2	4005	676.094440109816	0
2	4010	676.73516118839	0
2	4015	677.869701486663	0
2	4021	678.054388350572	0.083236004646
2	4026	679.384394787453	0
2	4031	680.01887398313	0
2	4036	680.56567933821	0
2	4043	681.597366170909	0
2	4046	681.652941078386	0.04747328938
2	4051	682.078257172125	0
2	4056	682.140371554259	0
2	4061	682.572420965142	0
2	4066	682.634937520775	0
2	4071	683.413297931782	0
2	4076	686.985231842325	0
2	4081	687.722330513521	0
2	4086	687.884060843521	0
2	4093	688.725313576975	0
2	4096	688.780888484452	0.008743508338
2	4101	689.917638837295	0
2	4108	691.133460515925	0
2	4111	691.189035423402	0.013483731856
2	4116	691.882198595645	0
2	4121	692.650861725929	0
2	4126	694.7923319036	0
2	4135	697.172066981974	0
2	4138	697.227641889451	0.039886679855
2	4141	697.283216796928	0.090464412895
2	4146	699.249015095561	0
2	4151	700.256855793917	0
2	4156	700.51612134165	0
2	4161	700.589773449425	0
2	4168	701.091802374122	0
2	4171	701.147377281599	0.001765347169
2	4176	702.084681583317	0
2	4181	702.248464079931	0
2	4186	702.578433745927	0
2	4191	702.960416520091	0
2	4196	703.874153054791	0
2	4201	705.828711595802	0
2	4206	705.939212335032	0
2	4211	706.702711124736	0
2	4216	708.392258809721	0
2	4221	709.331490079231	0
2	4226	709.740812808784	0
2	4231	710.392243030334	0
2	4236	710.987670072871	0
2	4241	711.175900781517	0
2	4246	711.32379722103	0
2	4251	711.79972646232	0
2	4256	712.418560339705	0
2	4261	712.563053817166	0
2	4266	714.673468413232	0
2	4272	715.110199147444	0
2	4277	715.345279701189	0
2	4282	715.474832126136	0
2	4287	717.252393172183	0
2	4292	717.834382079578	0
2	4297	718.154084312631	0
2	4302	718.718304565676	0
2	4307	719.289191865711	0
2	4312	719.414908639312	0
2	4317	720.218429615786	0
2	4322	720.604560209009	0
2	4327	720.743726285157	0
2	4334	721.235520280636	0
2	4337	721.291095188113	0.014193162934
2	4342	723.799776611842	0
2	4347	724.398368120698	0
2	4352	724.942553756244	0
2	4357	725.411550434987	0
2	4362	725.560165007446	0
2	4367	725.891964809844	0
2	4372	727.98587974069	0
2	4377	728.590589692674	0
2	4382	730.907556961079	0
2	4387	731.041160091008	0
2	4392	732.218238499296	0
2	4397	733.367369172983	0
2	4404	734.932066027596	0
2	4407	734.987640935073	0.014471721022
2	4412	735.089293012966	0
2	4417	737.614744970843	0
2	4422	737.865966082852	0
2	4427	738.280005936871	0
2	4432	740.144572674307	0
2	4439	740.40665502563	0
2	4442	740.462229933107	0.010418457969
2	4447	741.750926820941	0
2	4452	742.660203147168	0
2	4457	743.838407899655	0
2	4462	743.897672857865	0
2	4467	744.432364314282	0
2	4472	744.835375447201	0
2	4477	745.003468178477	0
2	4482	746.189581115417	0
2	4489	747.711310714215	0
2	4492	747.766885621692	0.044670324917
2	4499	748.481032862619	0
2	4502	748.536607770096	0.034707766125
2	4507	749.327787666416	0
2	4512	749.681319512965	0
2	4517	749.806421759209	0
2	4523	752.620427909835	0
2	4528	753.850860233705	0
2	4533	754.742919705328	0
2	4538	754.876036648007	0
2	4543	755.830356814348	0
2	4548	757.074100602785	0
2	4553	757.159683783691	0
2	4558	757.585008188631	0
2	4563	759.07822879235	0
2	4568	759.352716401889	0
2	4573	759.561459144388	0
2	4578	760.629378939704	0
2	4583	760.715076221905	0
2	4588	761.017813149712	0
2	4593	761.425293875202	0
2	4598	762.054480823122	0
2	4603	762.218047188722	0
2	4608	764.12060488531	0
2	4613	765.613704210592	0
2	4618	765.815791970655	0
2	4625	766.000134268277	0
2	4628	766.055709175754	0.052720535878
2	4633	768.083587452297	0
2	4638	768.302389708475	0
2	4643	768.490677484956	0
2	4648	769.538720546499	0
2	4653	770.347288300159	0
2	4658	770.427850019358	0
2	4663	771.063564094377	0
2	4668	771.7389001924	0
2	4675	772.163195806987	0
2	4678	772.218770714464	0.008738976593
2	4683	772.645590734897	0
2	4688	773.455279512496	0
2	4693	773.920707753675	0
2	4698	774.85252435487	0
2	4703	775.505282681764	0
2	4708	775.63833557719	0
2	4715	776.184444689898	0
2	4718	776.240019597375	0.049814835248
2	4723	777.556335958989	0
2	4728	777.962056592993	0
2	4733	778.51432796146	0
2	4738	778.667626703548	0
2	4743	779.496526569889	0
2	4748	780.37249123503	0
2	4753	780.760877925388	0
2	4760	780.933832369424	0
2	4763	780.989407276901	0.005997492295
2	4768	781.488880848683	0
2	4774	781.690327635763	0
2	4779	782.124915729971	0
2	4784	783.376234164733	0
2	4791	784.618172897449	0
2	4794	784.673747804926	0.022829232256
2	4799	785.850658496406	0
2	4804	786.531213884323	0
2	4809	787.088803230665	0
2	4814	787.359046724768	0
2	4819	787.955590687035	0
2	4824	788.267302246738	0
2	4829	788.617560632445	0
2	4834	789.358220718357	0
2	4839	789.696973892088	0
2	4844	789.784786771092	0
2	4849	790.088863400452	0
2	4854	790.452361108137	0
2	4859	791.126871595402	0
2	4864	792.553383134607	0
2	4869	792.754040156937	0
2	4874	792.826358124745	0
2	4879	793.791986836208	0
2	4884	794.602953709259	0
2	4889	796.136385587628	0
2	4894	796.410083555522	0
2	4899	797.089425851492	0
2	4904	798.627614915008	0
2	4909	801.001885433595	0
2	4914	801.455575688576	0
2	4919	801.604154389601	0
2	4924	802.277201854016	0
2	4929	803.108810205573	0
2	4934	807.31284737857	0
2	4939	808.633389034987	0
2	4944	810.082448360274	0
2	4949	810.32563779571	0
2	4954	812.078832520328	0
2	4959	812.489535663885	0
2	4964	812.746217807316	0
2	4969	812.841276215065	0
2	4974	813.902688339248	0
2	4979	816.429136637936	0
2	4984	816.725662884556	0
2	4989	817.039773208172	0
2	4994	818.08975629809	0
2	4999	818.580985041664	0
2	5004	819.776191609021	0
2	5009	820.942278646517	0
2	5014	821.415104796666	0
2	5019	823.712556195133	0
2	5025	824.001192743141	0
2	5030	824.092683484102	0
2	5035	825.307129855632	0
2	5040	826.125120770022	0
2	5045	827.193771644043	0
2	5050	828.650774645309	0
2	5055	832.597245622198	0
2	5060	833.385395759493	0
2	5065	833.587887935594	0
2	5072	834.302982932937	0
2	5075	834.358557840414	0.026611770895
2	5080	834.848356467549	0
2	5085	835.123946441173	0
2	5090	835.502327296926	0
2	5095	835.919406595792	0
2	5100	837.631690864127	0
2	5105	838.064056240468	0
2	5110	839.299120898135	0
2	5115	839.366562507043	0
2	5120	839.433454195767	0
2	5125	839.497264092195	0
2	5130	840.724340304761	0
2	5135	841.010859919694	0
2	5140	845.603361104097	0
2	5145	849.822462639385	0
2	5150	849.994516214802	0
2	5155	850.172958291494	0
2	5160	850.250159228583	0
2	5165	850.764194357552	0
2	5170	851.368831095118	0
2	5175	851.787726017193	0
2	5180	852.214490039517	0
2	5185	852.312766670486	0
2	5190	852.543633314502	0
2	5195	855.47379032806	0
2	5200	857.344460679001	0
2	5205	857.518392370556	0
2	5210	859.501885870864	0
2	5215	861.818759251241	0
2	5220	862.669643130132	0
2	5225	863.14910077712	0
2	5232	863.970426339815	0
2	5235	864.026001247292	0.040843545997
2	5240	864.843584717667	0
2	5245	867.493411077722	0
2	5250	867.610654893382	0
2	5257	868.214997779747	0
2	5262	868.270572687224	0.025304822884
2	5265	868.326147594701	0.046432276984
2	5270	868.850631815001	0
2	5276	870.126095291509	0
2	5281	871.888685278527	0
2	5286	872.131926104561	0
2	5293	876.208285845865	0
2	5296	876.263860753342	0.055012631087
2	5303	878.600708393629	0
2	5306	878.656283301106	0.024482247439
2	5311	878.989450052816	0
2	5316	879.368237170136	0
2	5321	880.148124636434	0
2	5326	880.252352378949	0
2	5331	880.616325498054	0
2	5336	881.013722906039	0
2	5341	883.880626655979	0
2	5346	886.038720418924	0
2	5351	886.144723658532	0
2	5356	886.407520248411	0
2	5361	886.610593704427	0
[...]
7	2670	431.697220738679	0
7	2675	433.777144556055	0
7	2680	437.221218778523	0
7	2685	438.085459533594	0
7	2690	438.821553011987	0
7	2695	438.934668372756	0
7	2700	439.649995309432	0
7	2705	441.07956584802	0
7	2710	441.462507942163	0
7	2715	443.511079600566	0
7	2720	444.920079565102	0
7	2725	445.135654741398	0
7	2730	446.041501866749	0
7	2735	446.466657187899	0
7	2740	446.934805860296	0
7	2745	447.162659206529	0
7	2750	450.121889366676	0
7	2755	450.364533953461	0
7	2760	452.22107121034	0
7	2766	452.724425157375	0
7	2773	453.372538773059	0
7	2776	453.428113680536	0
7	2781	453.702491121885	0
7	2786	453.829132110239	0
7	2791	456.189980283976	0
7	2796	457.155672799214	0
7	2801	458.308496676409	0
7	2806	458.542746801172	0
7	2811	459.540914079244	0
7	2816	460.005070212424	0
7	2821	460.417583412188	0
7	2826	462.1651276682	0
7	2831	464.464844602064	0
7	2836	465.445587548566	0
7	2841	465.676472475906	0
7	2846	466.939667983913	0
7	2851	467.348721739716	0
7	2856	468.255441486287	0
7	2861	472.355529085941	0
7	2866	474.297416198403	0
7	2873	474.483102257771	0
7	2876	474.538677165248	0
7	2881	474.814972588757	0
7	2886	475.05129234459	0
7	2891	476.467578041509	0
7	2896	477.945439472444	0
7	2901	479.010624682562	0
7	2906	481.177960756757	0
7	2911	482.746898014566	0
7	2916	483.520772326584	0
7	2921	485.854638320523	0
7	2926	486.353768323474	0
7	2931	488.579097503714	0
7	2936	488.671521781625	0
7	2941	489.088862785595	0
7	2946	489.377377821216	0
7	2951	490.243643206265	0
7	2956	491.276890312657	0
7	2961	491.498705689977	0
7	2966	491.743685016406	0
7	2971	492.38454500174	0
7	2976	492.594116182068	0
7	2981	494.70944254566	0
7	2986	496.237740815385	0
7	2991	497.489220707389	0
7	2996	498.179031465333	0
7	3001	498.817379094034	0
7	3006	499.029813000399	0
7	3011	501.320511914958	0
7	3017	501.557490552856	0
7	3022	502.220322796987	0
7	3027	502.278038967703	0
7	3032	502.618054414833	0
7	3037	505.582158795087	0
7	3042	505.818117966356	0
7	3047	506.736412331998	0
7	3052	507.109335742768	0
7	3057	508.358680142697	0
7	3062	508.56029223434	0
7	3067	510.29355448923	0
7	3072	510.774340984988	0
7	3077	511.622976337797	0
7	3082	511.780771371376	0
7	3087	515.754707782119	0
7	3092	517.429024107878	0
7	3097	517.946089357783	0
7	3102	520.683436571395	0
7	3107	524.392715670884	0
7	3112	524.661943483809	0
7	3117	525.3022177199	0
7	3122	525.721986644674	0
7	3127	526.730013204504	0
7	3132	527.534867376188	0
7	3137	527.858519989937	0
7	3142	528.699238065912	0
7	3147	529.046040194506	0
7	3152	529.4638705612	0
7	3157	530.679897316857	0
7	3162	531.83979633178	0
7	3167	532.558320347478	0
7	3172	534.273302730524	0
7	3179	535.626355336195	0
7	3182	535.681930243672	0
7	3187	535.961368497784	0
7	3192	537.355218970848	0
7	3197	537.859672674347	0
7	3202	540.297994429517	0
7	3207	540.646650968777	0
7	3212	542.423637273515	0
7	3217	543.312954604132	0
7	3222	543.963300506592	0
7	3227	544.809117922017	0
7	3232	549.736697650044	0
7	3237	550.047563858169	0
7	3242	550.433068206363	0
7	3247	551.521786656983	0
7	3252	551.72358309421	0
7	3257	552.411478502993	0
7	3262	552.752540037673	0
7	3268	554.025213703195	0
7	3273	554.555152144771	0
7	3278	555.307240679982	0
7	3283	558.149011561969	0
7	3288	558.684658158236	0
7	3293	558.934138601283	0
7	3298	559.884447989298	0
7	3303	560.203374960297	0
7	3310	560.712793263693	0
7	3313	560.76836817117	0
7	3318	563.050378947891	0
7	3323	563.4854871965	0
7	3328	563.572429040311	0
7	3333	564.047333747747	0
7	3338	564.466211827382	0
7	3343	566.410350912545	0
7	3348	566.646903565547	0
7	3353	567.521739987354	0
7	3358	568.113811753584	0
7	3363	569.990183858901	0
7	3368	570.246074889432	0
7	3373	571.142709625608	0
7	3378	572.962104540845	0
7	3383	573.398436405884	0
7	3388	573.831638139353	0
7	3395	574.91433985655	0
7	3398	574.969914764027	0
7	3403	575.282043787682	0
7	3408	577.335145604754	0
7	3413	578.396236396651	0
7	3418	579.223204204185	0
7	3423	581.176536538627	0
7	3428	582.680631195498	0
7	3433	583.7925191019	0
7	3438	584.275828275533	0
7	3443	584.410142948485	0
7	3448	584.879398328043	0
7	3453	586.609403258984	0
7	3458	586.888339505653	0
7	3463	588.15972182368	0
7	3468	588.492650794927	0
7	3473	589.781847156538	0
7	3478	589.96348744071	0
7	3483	591.084332778472	0
7	3488	592.330251447701	0
7	3495	593.633919671434	0
7	3498	593.689494578911	0
7	3503	595.721301038897	0
7	3508	595.86645483266	0
7	3513	596.261223199911	0
7	3519	596.44591006382	0
7	3524	597.129015780365	0
7	3529	598.102730657131	0
7	3534	598.418337864808	0
7	3539	598.860274716804	0
7	3544	599.027850473629	0
7	3549	599.558129353019	0
7	3554	600.740370546876	0
7	3559	601.027404932503	0
7	3564	601.530669575547	0
7	3569	601.758828371345	0
7	3574	603.028826003886	0
7	3579	603.246433397137	0
7	3584	603.978188153526	0
7	3589	606.629336491474	0
7	3594	606.985228798385	0
7	3599	607.066028504369	0
7	3604	608.359523809842	0
7	3609	609.727360055635	0
7	3614	610.264091155341	0
7	3619	611.207933876639	0
7	3624	611.823873505863	0
7	3629	612.027299094929	0
7	3634	612.176859813359	0
7	3639	613.252580762916	0
7	3644	614.025085499449	0
7	3649	615.460083347296	0
7	3654	615.96849215621	0
7	3659	616.629284047685	0
7	3664	617.773682421604	0
7	3669	618.217730865083	0
7	3674	618.693509672112	0
7	3679	619.479344658802	0
7	3684	622.481893166115	0
7	3689	623.191284131098	0
7	3694	623.670501585437	0
7	3699	623.768156095305	0
7	3706	623.975901775078	0
7	3709	624.031476682555	0
7	3714	625.446505203442	0
7	3719	626.025932940361	0
7	3724	627.291452074216	0
7	3729	628.07647065663	0
7	3734	629.630859289843	0
7	3741	630.197667893481	0
7	3746	630.253242800958	0
7	3749	630.308817708435	0
7	3754	630.91117587024	0
7	3759	631.349972006903	0
7	3764	631.457037756438	0
7	3770	632.654018740334	0
7	3775	633.379594788853	0
7	3780	634.563710257158	0
7	3785	634.818978521738	0
7	3790	635.236791367562	0
7	3795	637.499739550941	0
7	3800	638.072545306607	0
7	3805	639.691450570241	0
7	3810	640.138695146605	0
7	3815	640.355098419711	0
7	3820	640.863207878304	0
7	3825	641.132139210743	0
7	3830	642.15159027005	0
7	3835	642.404756705742	0
7	3840	643.455594911025	0
7	3845	643.73396617649	0
7	3850	644.337005070379	0
7	3855	645.691109933899	0
7	3860	646.86241595324	0
7	3865	649.034071659598	0
7	3870	649.682007918331	0
7	3875	650.870917963849	0
7	3880	653.125411774272	0
7	3885	653.356447317723	0
7	3890	653.809770633108	0
7	3897	654.342872550601	0
7	3900	654.398447458078	0
7	3905	655.240808354863	0
7	3910	655.970492740327	0
7	3915	656.312893445031	0
7	3920	657.034586066873	0
7	3925	657.294392721813	0
7	3930	660.247595636472	0
7	3935	660.998709124682	0
7	3940	661.495483190084	0
7	3945	661.724620922019	0
7	3950	663.327726454582	0
7	3955	664.200565893587	0
7	3960	666.678350592809	0
7	3965	666.903867171955	0
7	3970	667.708410165978	0
7	3975	669.185441756067	0
7	3980	669.459333310154	0
7	3985	670.668846405401	0
7	3990	671.931723807309	0
7	3995	673.32431471325	0
7	4000	673.568403818629	0
7	4005	676.094440109816	0
7	4010	676.73516118839	0
7	4015	677.869701486663	0
7	4021	678.054388350572	0
7	4026	679.384394787453	0
7	4031	680.01887398313	0
7	4036	680.56567933821	0
7	4043	681.597366170909	0
7	4046	681.652941078386	0
7	4051	682.078257172125	0
7	4056	682.140371554259	0
7	4061	682.572420965142	0
7	4066	682.634937520775	0
7	4071	683.413297931782	0
7	4076	686.985231842325	0
7	4081	687.722330513521	0
7	4086	687.884060843521	0
7	4093	688.725313576975	0
7	4096	688.780888484452	0
7	4101	689.917638837295	0
7	4108	691.133460515925	0
7	4111	691.189035423402	0
7	4116	691.882198595645	0
7	4121	692.650861725929	0
7	4126	694.7923319036	0
7	4135	697.172066981974	0
7	4138	697.227641889451	0
7	4141	697.283216796928	0
7	4146	699.249015095561	0
7	4151	700.256855793917	0
7	4156	700.51612134165	0
7	4161	700.589773449425	0
7	4168	701.091802374122	0
7	4171	701.147377281599	0
7	4176	702.084681583317	0
7	4181	702.248464079931	0
7	4186	702.578433745927	0
7	4191	702.960416520091	0
7	4196	703.874153054791	0
7	4201	705.828711595802	0
7	4206	705.939212335032	0
7	4211	706.702711124736	0
7	4216	708.392258809721	0
7	4221	709.331490079231	0
7	4226	709.740812808784	0
7	4231	710.392243030334	0
7	4236	710.987670072871	0
7	4241	711.175900781517	0
7	4246	711.32379722103	0
7	4251	711.79972646232	0
7	4256	712.418560339705	0
7	4261	712.563053817166	0
7	4266	714.673468413232	0
7	4272	715.110199147444	0
7	4277	715.345279701189	0
7	4282	715.474832126136	0
7	4287	717.252393172183	0
7	4292	717.834382079578	0
7	4297	718.154084312631	0
7	4302	718.718304565676	0
7	4307	719.289191865711	0
7	4312	719.414908639312	0
7	4317	720.218429615786	0
7	4322	720.604560209009	0
7	4327	720.743726285157	0
7	4334	721.235520280636	0
7	4337	721.291095188113	0
7	4342	723.799776611842	0
7	4347	724.398368120698	0
7	4352	724.942553756244	0
7	4357	725.411550434987	0
7	4362	725.560165007446	0
7	4367	725.891964809844	0
7	4372	727.98587974069	0
7	4377	728.590589692674	0
7	4382	730.907556961079	0
7	4387	731.041160091008	0
7	4392	732.218238499296	0
7	4397	733.367369172983	0
7	4404	734.932066027596	0
7	4407	734.987640935073	0
7	4412	735.089293012966	0
7	4417	737.614744970843	0
7	4422	737.865966082852	0
7	4427	738.280005936871	0
7	4432	740.144572674307	0
7	4439	740.40665502563	0
7	4442	740.462229933107	0
7	4447	741.750926820941	0
7	4452	742.660203147168	0
7	4457	743.838407899655	0
7	4462	743.897672857865	0
7	4467	744.432364314282	0
7	4472	744.835375447201	0
7	4477	745.003468178477	0
7	4482	746.189581115417	0
7	4489	747.711310714215	0
7	4492	747.766885621692	0
7	4499	748.481032862619	0
7	4502	748.536607770096	0
7	4507	749.327787666416	0
7	4512	749.681319512965	0
7	4517	749.806421759209	0
7	4523	752.620427909835	0
7	4528	753.850860233705	0
7	4533	754.742919705328	0
7	4538	754.876036648007	0
7	4543	755.830356814348	0
7	4548	757.074100602785	0
7	4553	757.159683783691	0
7	4558	757.585008188631	0
7	4563	759.07822879235	0
7	4568	759.352716401889	0
7	4573	759.561459144388	0
7	4578	760.629378939704	0
7	4583	760.715076221905	0
7	4588	761.017813149712	0
7	4593	761.425293875202	0
7	4598	762.054480823122	0
7	4603	762.218047188722	0
7	4608	764.12060488531	0
7	4613	765.613704210592	0
7	4618	765.815791970655	0
7	4625	766.000134268277	0
7	4628	766.055709175754	0
7	4633	768.083587452297	0
7	4638	768.302389708475	0
7	4643	768.490677484956	0
7	4648	769.538720546499	0
7	4653	770.347288300159	0
7	4658	770.427850019358	0
7	4663	771.063564094377	0
7	4668	771.7389001924	0
7	4675	772.163195806987	0
7	4678	772.218770714464	0
7	4683	772.645590734897	0
7	4688	773.455279512496	0
7	4693	773.920707753675	0
7	4698	774.85252435487	0
7	4703	775.505282681764	0
7	4708	775.63833557719	0
7	4715	776.184444689898	0
7	4718	776.240019597375	0
7	4723	777.556335958989	0
7	4728	777.962056592993	0
7	4733	778.51432796146	0
7	4738	778.667626703548	0
7	4743	779.496526569889	0
7	4748	780.37249123503	0
7	4753	780.760877925388	0
7	4760	780.933832369424	0
7	4763	780.989407276901	0
7	4768	781.488880848683	0
7	4774	781.690327635763	0
7	4779	782.124915729971	0
7	4784	783.376234164733	0
7	4791	784.618172897449	0
7	4794	784.673747804926	0
7	4799	785.850658496406	0
7	4804	786.531213884323	0
7	4809	787.088803230665	0
7	4814	787.359046724768	0
7	4819	787.955590687035	0
7	4824	788.267302246738	0
7	4829	788.617560632445	0
7	4834	789.358220718357	0
7	4839	789.696973892088	0
7	4844	789.784786771092	0
7	4849	790.088863400452	0
7	4854	790.452361108137	0
7	4859	791.126871595402	0
7	4864	792.553383134607	0
7	4869	792.754040156937	0
7	4874	792.826358124745	0
7	4879	793.791986836208	0
7	4884	794.602953709259	0
7	4889	796.136385587628	0
7	4894	796.410083555522	0
7	4899	797.089425851492	0
7	4904	798.627614915008	0
7	4909	801.001885433595	0
7	4914	801.455575688576	0
7	4919	801.604154389601	0
7	4924	802.277201854016	0
7	4929	803.108810205573	0
7	4934	807.31284737857	0
7	4939	808.633389034987	0
7	4944	810.082448360274	0
7	4949	810.32563779571	0
7	4954	812.078832520328	0
7	4959	812.489535663885	0
7	4964	812.746217807316	0
7	4969	812.841276215065	0
7	4974	813.902688339248	0
7	4979	816.429136637936	0
7	4984	816.725662884556	0
7	4989	817.039773208172	0
7	4994	818.08975629809	0
7	4999	818.580985041664	0
7	5004	819.776191609021	0
7	5009	820.942278646517	0
7	5014	821.415104796666	0
7	5019	823.712556195133	0
7	5025	824.001192743141	0
7	5030	824.092683484102	0
7	5035	825.307129855632	0
7	5040	826.125120770022	0
7	5045	827.193771644043	0
7	5050	828.650774645309	0
7	5055	832.597245622198	0
7	5060	833.385395759493	0
7	5065	833.587887935594	0
7	5072	834.302982932937	0
7	5075	834.358557840414	0
7	5080	834.848356467549	0
7	5085	835.123946441173	0
7	5090	835.502327296926	0
7	5095	835.919406595792	0
7	5100	837.631690864127	0
7	5105	838.064056240468	0
7	5110	839.299120898135	0
7	5115	839.366562507043	0
7	5120	839.433454195767	0
7	5125	839.497264092195	0
7	5130	840.724340304761	0
7	5135	841.010859919694	0
7	5140	845.603361104097	0
7	5145	849.822462639385	0
7	5150	849.994516214802	0
7	5155	850.172958291494	0
7	5160	850.250159228583	0
7	5165	850.764194357552	0
7	5170	851.368831095118	0
7	5175	851.787726017193	0
7	5180	852.214490039517	0
7	5185	852.312766670486	0
7	5190	852.543633314502	0
7	5195	855.47379032806	0
7	5200	857.344460679001	0
7	5205	857.518392370556	0
7	5210	859.501885870864	0
7	5215	861.818759251241	0
7	5220	862.669643130132	0
7	5225	863.14910077712	0
7	5232	863.970426339815	0
7	5235	864.026001247292	0
7	5240	864.843584717667	0
7	5245	867.493411077722	0
7	5250	867.610654893382	0
7	5257	868.214997779747	0
7	5262	868.270572687224	0
7	5265	868.326147594701	0
7	5270	868.850631815001	0
7	5276	870.126095291509	0
7	5281	871.888685278527	0
7	5286	872.131926104561	0
7	5293	876.208285845865	0
7	5296	876.263860753342	0
7	5303	878.600708393629	0
7	5306	878.656283301106	0
7	5311	878.989450052816	0
7	5316	879.368237170136	0
7	5321	880.148124636434	0
7	5326	880.252352378949	0
7	5331	880.616325498054	0
7	5336	881.013722906039	0
7	5341	883.880626655979	0
7	5346	886.038720418924	0
7	5351	886.144723658532	0
7	5356	886.407520248411	0
7	5361	886.610593704427	0
7	5366	886.736253773206	0
7	5371	886.806040090208	0
7	5376	886.912197083426	0
7	5381	888.744542301834	0
7	5386	889.154101778593	0
7	5391	890.137760880723	0
7	5396	890.744901224081	0
7	5401	891.564931850467	0
7	5406	892.85611956596	0
7	5411	893.238439940765	0
7	5416	893.536827033791	0
7	5421	894.674333217725	0
7	5426	895.176632644086	0
7	5431	896.311882867974	0
7	5436	896.412779783989	0
7	5441	897.100242338767	0
7	5446	897.220658312899	0
7	5451	897.737199941553	0
7	5456	897.797681375227	0
7	5461	900.535062469884	0
7	5466	900.78940566712	0
7	5471	901.639570062368	0
7	5476	901.993053274062	0
7	5481	902.112750943244	0
7	5486	903.56007505848	0
7	5491	904.742297690206	0
7	5496	905.861513562444	0
7	5501	909.503938832919	0
7	5506	910.298769717286	0
7	5511	913.035169006768	0
7	5518	913.216942521451	0
7	5521	913.272517428928	0
7	5527	913.546206232948	0
7	5532	913.785208012213	0
7	5537	914.517352499272	0
7	5542	915.060018543947	0
7	5547	915.460847424392	0
7	5552	915.565035915594	0
7	5557	916.669891068869	0
7	5562	916.928691725293	0
7	5567	917.169558616756	0
7	5572	918.413904655172	0
7	5577	918.597158111214	0
7	5582	919.419794448204	0
7	5587	920.021447523419	0
7	5592	920.340340952164	0
7	5597	921.363373274403	0
7	5604	921.605024690298	0
7	5607	921.660599597775	0
7	5612	924.01324891651	0
7	5617	926.447267190261	0
7	5622	926.730756537234	0
7	5627	927.171398267191	0
7	5632	927.383127280044	0
7	5637	927.988512097128	0
7	5642	928.278570558109	0
7	5647	928.468944903021	0
7	5652	929.081615939713	0
7	5657	929.800939024963	0
7	5662	930.673768110361	0
7	5667	930.975039782989	0
7	5672	932.098304525444	0
7	5677	933.011900156448	0
7	5682	933.226440471277	0
7	5687	933.735496967671	0
7	5692	934.44916413282	0
7	5697	935.189545890123	0
7	5702	937.044558022745	0
7	5707	937.222372973934	0
7	5712	937.801528690698	0
7	5717	938.877904192704	0
7	5722	940.505480210055	0
7	5727	942.059070319922	0
7	5732	942.973928150501	0
7	5737	943.707534246437	0
7	5742	944.564980584586	0
7	5747	945.528868822685	0
7	5752	945.875451138238	0
7	5757	946.157849085307	0
7	5762	946.217643090104	0
7	5767	946.518926541453	0
7	5772	946.79845569842	0
7	5778	949.384233856453	0
7	5783	950.688026740321	0
7	5788	950.82502975078	0
7	5793	951.467857563633	0
7	5798	954.287569529634	0
7	5803	956.26895247551	0
7	5810	956.826724236166	0
7	5813	956.882299143643	0
7	5818	957.109082690535	0
7	5823	957.602638146407	0
7	5828	962.288482317887	0
7	5833	963.37467708849	0
7	5838	964.006030883217	0
7	5843	965.106823848765	0
7	5848	968.380132547552	0
7	5853	970.071020700265	0
7	5858	972.154397509553	0
7	5863	975.349158604846	0
7	5868	975.552491171966	0
7	5873	975.946051436933	0
7	5878	976.178324247243	0
7	5883	976.334210076691	0
7	5888	976.570613284833	0
7	5893	980.26854712284	0
7	5898	981.481107771508	0
7	5903	982.095799312551	0
7	5908	982.473247492906	0
7	5913	983.556380090663	0
7	5918	983.820450473211	0
7	5923	983.878190394539	0
7	5928	984.075124292829	0
7	5933	984.868577798035	0
7	5938	985.290506826039	0
7	5943	986.048063636795	0
7	5948	986.249028957169	0
7	5953	987.879920719685	0
7	5958	988.341184915996	0
7	5963	993.161077952523	0
7	5968	994.111243248662	0
7	5973	994.360186737849	0
7	5978	995.199444032537	0
7	5983	995.281321878296	0
7	5988	999.040486008206	0
7	5993	999.233526187658	0
8	16	2.928178946057	0.013098695242
8	253	39.391964723297	0.145641739087
8	297	47.712638067812	0.033728824692
8	332	51.278790569758	0.00060984223
8	362	52.916014698643	0.024344535766
8	497	75.704819896455	0.039170769599
8	543	87.580916220469	0.016588410379
8	603	92.842037727593	0.034901082011
8	755	113.34347631136	0.109721181021
8	839	129.829263384626	0.054979900318
8	884	137.706059517773	0.005514924637
8	939	153.276834557907	0.032117233512
8	1006	163.901648804012	0.060883974978
8	1060	169.458906712871	0.000865297805
8	1140	185.299394744405	0.011125447479
8	1261	209.391554079992	0.006424627169
8	1266	209.447128987469	0.013887580599
8	1522	242.988573462641	0.027548751812
8	1567	254.192715217187	0.039002683497
8	1572	254.248290124664	0.038437455407
8	1657	268.007694801826	0.003369885177
8	1702	276.105916520413	0.047562894732
8	1898	302.994516323478	0.018395562608
8	1983	312.624080516331	0.006782999105
8	1993	312.838242429698	0.04256615966
8	2010	314.674559571532	0.030765077208
8	2109	332.825467613864	0.005311894142
8	2184	351.824946646008	0.017162765194
8	2350	376.32725104852	0.048033269618
8	2375	379.323401503809	0.026702297581
8	2415	384.250408844542	0.000859646649
8	2556	407.206645345853	0.029300643476
8	2561	407.26222025333	0.043913240062
8	2591	414.023976957405	0.033137438989
8	2606	419.911923348926	0.006160544389
8	2626	422.916244447449	0.010876055799
8	2772	453.372538773059	0.049511841336
8	2872	474.483102257771	0.042181190555
8	3178	535.626355336195	0.044475553152
8	3309	560.712793263693	0.001551944537
8	3394	574.91433985655	0.022258485256
8	3494	593.633919671434	0.007213203942
8	3516	596.390335156343	0.039041619143
8	3705	623.975901775078	0.019910597678
8	3740	630.197667893481	0.026982478523
8	3745	630.253242800958	0.054473183862
8	3896	654.342872550601	0.013424546297
8	4018	677.998813443095	0.083236004646
8	4042	681.597366170909	0.04747328938
8	4092	688.725313576975	0.008743508338
8	4107	691.133460515925	0.013483731856
8	4134	697.172066981974	0.039886679855
8	4137	697.227641889451	0.090464412895
8	4167	701.091802374122	0.001765347169
8	4333	721.235520280636	0.014193162934
8	4403	734.932066027596	0.014471721022
8	4438	740.40665502563	0.010418457969
8	4488	747.711310714215	0.044670324917
8	4498	748.481032862619	0.034707766125
8	4624	766.000134268277	0.052720535878
8	4674	772.163195806987	0.008738976593
8	4714	776.184444689898	0.049814835248
8	4759	780.933832369424	0.005997492295
8	4790	784.618172897449	0.022829232256
8	5071	834.302982932937	0.026611770895
8	5231	863.970426339815	0.040843545997
8	5256	868.214997779747	0.025304822884
8	5261	868.270572687224	0.046432276984
8	5292	876.208285845865	0.055012631087
8	5302	878.600708393629	0.024482247439
8	5517	913.216942521451	0.004004133043
8	5603	921.605024690298	0.041306036952
8	5809	956.826724236166	0.02580638987

