version 2
run General-50-20240201-11:04:15-40057
attr configname General
attr datetime 20240201-11:04:15
attr experiment General
attr inifile main.ini
attr iterationvars "$0=2.0, $1=1.7, $2=70"
attr iterationvarsf 2.0,1.7,70-
attr measurement "$0=2.0, $1=1.7, $2=70"
attr network Rete
attr processid 40057
attr repetition 10
attr replication #10
attr resultdir results
attr runnumber 50
attr seedset 50
param Rete.lambda 2.0
param Rete.a 0.3s
param Rete.b 1.7s
param Rete.c 0.1s
param Rete.d 0.3s
param Rete.mu 3.0
param Rete.source2.interArrivalTime exponential(1s/lambda)
param Rete.source2.jobServiceTime exponential(1s/mu)
param Rete.source2.deadline uniform(a,b)
param Rete.server2.j 70
param Rete.server2.V uniform(c,d)

vector 0 Rete.passiveQueue queueLength:vector ETV
attr interpolationmode sample-hold
attr title "queue length, vector"
vector 1 Rete.sink lifeTime:vector ETV
attr interpolationmode none
attr title "lifetime of arrived jobs, vector"
attr unit s
vector 2 Rete.sink totalQueueingTime:vector ETV
attr interpolationmode none
attr title "the total time spent in queues by arrived jobs, vector"
attr unit s
vector 3 Rete.sink queuesVisited:vector ETV
attr interpolationmode none
attr title "the total number of queues visited by arrived jobs, vector"
vector 4 Rete.sink totalServiceTime:vector ETV
attr interpolationmode none
attr title "the total time spent  by arrived jobs, vector"
attr unit s
vector 5 Rete.sink totalDelayTime:vector ETV
attr interpolationmode none
attr title "the total time spent in delay nodes by arrived jobs, vector"
attr unit s
vector 6 Rete.sink delaysVisited:vector ETV
attr interpolationmode none
attr title "the total number of delays visited by arrived jobs, vector"
vector 7 Rete.sink generation:vector ETV
attr interpolationmode none
attr title "the generation of the arrived jobs, vector"
vector 8 Rete.passiveQueue queueingTime:vector ETV
attr interpolationmode none
attr title "queueing time at dequeue, vector"
attr unit s
0	0	0	0
0	20	1.222631217118	1
0	21	1.298089350394	0
0	30	1.542044230406	1
0	31	1.545781343807	0
0	90	9.556688552919	1
0	91	9.570590715934	0
0	105	10.30363197387	1
0	106	10.311324774711	0
0	120	14.063102451332	1
0	121	14.103001685062	0
0	160	17.654252082971	1
0	161	17.717014255101	0
0	210	22.279750828162	1
0	211	22.305846206909	0
0	230	23.355598886603	1
0	232	23.382435731312	2
0	233	23.43268252009	1
0	236	23.518975315291	0
0	255	24.54871196847	1
0	256	24.605977431061	0
0	290	29.334742954866	1
0	291	29.393944216395	0
0	320	31.793088992288	1
0	321	31.870558587309	0
0	352	34.882195673482	1
0	353	34.921419181534	0
0	431	47.04321683099	1
0	432	47.044634076791	0
0	456	49.965069764589	1
0	457	49.984679888116	0
0	576	64.542526674724	1
0	577	64.590677270927	0
0	586	64.886436310614	1
0	587	64.897921903192	0
0	591	64.911307520329	1
0	593	64.970872285046	2
0	595	64.984060550843	3
0	596	64.984214698393	2
0	599	65.070507493594	1
0	602	65.156800288795	0
0	691	74.372423878814	1
0	692	74.422952223122	0
0	732	79.391197918239	1
0	733	79.415513716131	0
0	767	83.566174128408	1
0	768	83.649739566988	0
0	777	84.497457837002	1
0	778	84.566006814281	0
0	782	84.618502192718	1
0	784	84.625503669641	2
0	785	84.652299609482	1
0	788	84.738592404683	0
0	817	86.937201331218	1
0	818	86.962512588186	0
0	832	88.358931524921	1
0	833	88.428214504204	0
0	922	100.109563153525	1
0	923	100.1651039135	0
0	987	106.008796346579	1
0	988	106.069601583751	0
0	1027	109.822632393521	1
0	1028	109.872362466428	0
0	1054	113.13240451579	1
0	1055	113.181811667585	0
0	1058	113.249689089073	1
0	1059	113.268104462786	0
0	1073	113.759796966967	1
0	1074	113.81718539357	0
0	1133	119.885061632954	1
0	1135	119.932103290235	2
0	1136	119.956463765875	1
0	1139	120.042756561076	0
0	1173	122.342832661008	1
0	1174	122.38797996917	0
0	1198	126.093263737474	1
0	1199	126.171220192604	0
0	1203	126.220288660957	1
0	1204	126.257512987805	0
0	1218	127.521275964595	1
0	1219	127.586047413528	0
0	1223	127.611715477993	1
0	1224	127.672340208729	0
0	1228	127.679786049659	1
0	1229	127.75863300393	0
0	1253	130.350025324103	1
0	1254	130.379439491939	0
0	1343	138.711419390895	1
0	1344	138.735812379921	0
0	1373	142.341061709251	1
0	1374	142.351427042859	0
0	1383	142.674333988832	1
0	1384	142.68749874766	0
0	1403	144.068628908297	1
0	1406	144.248666752786	0
0	1439	148.414265188586	1
0	1440	148.481689700499	0
0	1519	160.159145992567	1
0	1520	160.218898775377	0
0	1524	160.268530585475	1
0	1525	160.305191570578	0
0	1544	162.819935364658	1
0	1546	162.831485357076	2
0	1547	162.844792524891	1
0	1551	162.84483618747	2
0	1552	162.931085320092	1
0	1555	163.017378115293	0
0	1574	165.732863780841	1
0	1575	165.805324817245	0
0	1639	170.372270738061	1
0	1640	170.388520981369	0
0	1659	173.068269970503	1
0	1660	173.078963158877	0
0	1729	177.294072590497	1
0	1730	177.370985392969	0
0	1780	181.158380542788	1
0	1781	181.215335382717	0
0	1815	184.555951045437	1
0	1816	184.641060695192	0
0	1845	186.38149241804	1
0	1846	186.395729824666	0
0	1850	186.453358153339	1
0	1851	186.482022619867	0
0	1860	187.09655469286	1
0	1861	187.101132472849	0
0	1890	191.816452171955	1
0	1891	191.825844921168	0
0	1910	193.509324998735	1
0	1911	193.542716468176	0
0	1920	194.301019555834	1
0	1921	194.34463553746	0
0	1960	199.112000686633	1
0	1961	199.154418546377	0
0	1965	199.209613456643	1
0	1966	199.240711341578	0
0	2030	205.965637881363	1
0	2031	206.033012394887	0
0	2045	206.925212831991	1
0	2046	206.944991279154	0
0	2050	206.985671664394	1
0	2051	207.031284074355	0
0	2105	210.811593368528	1
0	2108	211.010135653323	0
0	2121	211.359231044973	1
0	2122	211.44223272225	0
0	2131	211.765341478696	1
0	2132	211.84899172847	0
0	2196	216.322470505403	1
0	2197	216.378754103106	0
0	2301	229.371733154118	1
0	2302	229.428453625927	0
0	2316	230.645887885881	1
0	2317	230.724920701481	0
0	2321	230.79072667472	1
0	2322	230.811213496682	0
0	2371	235.846063246495	1
0	2372	235.905536966277	0
0	2441	241.056425136987	1
0	2442	241.090766169333	0
0	2497	245.893148251097	1
0	2498	245.952897779732	0
0	2507	246.141403662918	1
0	2508	246.185320187982	0
0	2527	248.302040408514	1
0	2528	248.378333129315	0
0	2547	250.260607398528	1
0	2548	250.337338010725	0
0	2587	255.368809075672	1
0	2588	255.39921276236	0
0	2592	255.477065492232	1
0	2593	255.485505557561	0
0	2602	255.897725920768	1
0	2603	255.904318224882	0
0	2632	259.591743129738	1
0	2633	259.619302060186	0
0	2682	266.131722156307	1
0	2683	266.160079810682	0
0	2742	272.604698121143	1
0	2743	272.633748712965	0
0	2757	273.099718125119	1
0	2758	273.101753365775	0
0	2762	273.109947477779	1
0	2763	273.188046160976	0
0	2838	281.6556408918	1
0	2839	281.738222324707	0
0	2873	284.943754220296	1
0	2874	285.018170491376	0
0	2878	285.035597090761	1
0	2879	285.104463286577	0
0	2888	285.855888377631	1
0	2890	285.862519644756	2
0	2891	285.87750141192	1
0	2894	285.963794207121	0
0	2898	286.007650371288	1
0	2899	286.050087002322	0
0	2978	296.027963492767	1
0	2979	296.10613286992	0
0	2998	297.486276688579	1
0	2999	297.556310353866	0
0	3083	307.492660550529	1
0	3084	307.566819604597	0
0	3118	309.200233691395	1
0	3119	309.216798589677	0
0	3153	312.163181633089	1
0	3154	312.195776230258	0
0	3179	314.169270144992	1
0	3180	314.205822104901	0
0	3194	315.300235143041	1
0	3195	315.311408894782	0
0	3309	327.39508102359	1
0	3310	327.440999654645	0
0	3409	337.766403452047	1
0	3410	337.793385779326	0
0	3419	339.794624160506	1
0	3420	339.869771271232	0
0	3429	340.64650704934	1
0	3430	340.667087221667	0
0	3449	342.186743350705	1
0	3450	342.241599897476	0
0	3494	348.623652943375	1
0	3495	348.681860630178	0
0	3520	349.623210875158	1
0	3521	349.643788046828	0
0	3525	349.708396897796	1
0	3526	349.730080842029	0
0	3530	349.779076931239	1
0	3531	349.81637363723	0
0	3580	353.910848380879	1
0	3581	353.937500210672	0
0	3595	354.996920309167	1
0	3596	355.049515779401	0
0	3605	355.243826929029	1
0	3606	355.304182084555	0
0	3770	374.611886853106	1
0	3771	374.681044419182	0
0	3840	380.48418140868	1
0	3841	380.568332871242	0
0	3901	388.113993081384	1
0	3902	388.164513704579	0
0	3926	390.432832532176	1
0	3927	390.44550334002	0
0	3971	393.217430739028	1
0	3973	393.251825263826	2
0	3974	393.26406165984	1
0	3977	393.350354455041	0
0	4021	399.28272769268	1
0	4022	399.316161353546	0
0	4056	403.420084254687	1
0	4057	403.433671447656	0
0	4096	406.419804967471	1
0	4097	406.47201304946	0
0	4131	408.308249577062	1
0	4132	408.367052999798	0
0	4136	408.448585934892	1
0	4137	408.453345794999	0
0	4146	409.076300130042	1
0	4147	409.112393713506	0
0	4227	418.523015322449	1
0	4228	418.578812667446	0
0	4257	424.09215227056	1
0	4258	424.122190967795	0
0	4262	424.140631385212	1
0	4263	424.208483762996	0
0	4287	425.602746821677	1
0	4288	425.647101113236	0
0	4317	428.406673705907	1
0	4318	428.420851747526	0
0	4322	428.461227647707	1
0	4323	428.507144542727	0
0	4327	428.589984078971	1
0	4328	428.593437337928	0
0	4342	429.507273534629	1
0	4343	429.520597167818	0
0	4372	431.157951270152	1
0	4373	431.173429154703	0
0	4387	431.911478189603	1
0	4388	431.965262857949	0
0	4412	434.03290359577	1
0	4413	434.108949666772	0
0	4427	435.001528685163	1
0	4428	435.002131397024	0
0	4437	435.495536043188	1
0	4438	435.528151281344	0
0	4467	437.586901172675	1
0	4468	437.652004495533	0
0	4507	442.128188110739	1
0	4509	442.154646977552	2
0	4510	442.198032409744	1
0	4513	442.284325204945	0
0	4517	442.312406777349	1
0	4519	442.355329285112	2
0	4520	442.370618000146	1
0	4524	442.383616512692	2
0	4525	442.456910795347	1
0	4528	442.543203590548	0
0	4562	446.121385286396	1
0	4565	446.253886401922	0
0	4573	447.14893769437	1
0	4574	447.184427389587	0
0	4593	448.012299485161	1
0	4595	448.052113732143	2
0	4596	448.08318768696	1
0	4600	448.138955741236	2
0	4601	448.169480482161	1
0	4604	448.255773277362	0
0	4618	448.514012167404	1
0	4619	448.579821129747	0
0	4623	448.665035718983	1
0	4624	448.666113924948	0
0	4643	450.520613521605	1
0	4644	450.563654337015	0
0	4668	453.464585226707	1
0	4669	453.504149426547	0
0	4733	460.781022752364	1
0	4734	460.830853645762	0
0	4738	460.907297373125	1
0	4739	460.917146440963	0
0	4823	470.506866725918	1
0	4824	470.52801415872	0
0	4828	470.544104123547	1
0	4829	470.614306953921	0
0	4848	471.412922367079	1
0	4849	471.487742627398	0
0	4863	472.987704759867	1
0	4864	473.013397764633	0
0	4913	476.165203225426	1
0	4915	476.166391869038	2
0	4918	476.300728729845	1
0	4920	476.387021525046	0
0	4924	476.404961710223	1
0	4925	476.473314320247	0
0	4944	480.8684914471	1
0	4945	480.922916677949	0
0	4969	482.407873845635	1
0	4970	482.479930071176	0
0	4994	484.440825301106	1
0	4995	484.521732828684	0
0	5084	495.199270560173	1
0	5085	495.255222326491	0
0	5169	505.310649936782	1
0	5170	505.378718487674	0
0	5270	518.035566988453	1
0	5271	518.110353059372	0
0	5295	520.776513614786	1
0	5297	520.784607912708	2
0	5298	520.821158698801	1
0	5301	520.907451494002	0
0	5350	526.790260977053	1
0	5351	526.814731745097	0
0	5355	526.855564847669	1
0	5356	526.901024540298	0
0	5450	539.712681950944	1
0	5451	539.782337313797	0
0	5470	540.686689968084	1
0	5471	540.723384585911	0
0	5475	540.73072507967	1
0	5476	540.809677381112	0
0	5525	547.825984898865	1
0	5526	547.889479607701	0
0	5530	547.937681662835	1
0	5531	547.975772402902	0
0	5580	551.556465039434	1
0	5581	551.57205991424	0
0	5585	551.611569391765	1
0	5586	551.658352709441	0
0	5590	551.719959618194	1
0	5591	551.744645504642	0
0	5600	552.145578334062	1
0	5601	552.146475139195	0
0	5615	553.685009897364	1
0	5617	553.741933874356	2
0	5620	553.864144164903	1
0	5622	553.950436960104	0
0	5656	557.777139294752	1
0	5657	557.860011324271	0
0	5676	558.673057237239	1
0	5677	558.676265765719	0
0	5691	559.176990030228	1
0	5692	559.244844154472	0
0	5706	560.532953007037	1
0	5707	560.553101011918	0
0	5796	572.764868705935	1
0	5797	572.814026653584	0
0	5801	572.8777450811	1
0	5802	572.900319448785	0
0	5826	575.450179716582	1
0	5827	575.533786044108	0
0	5841	576.193543379782	1
0	5842	576.278913244975	0
0	5876	578.977471097479	1
0	5877	579.008464178463	0
0	5896	580.792666057058	1
0	5897	580.858906790499	0
0	5921	584.538101966203	1
0	5922	584.599420288327	0
0	5926	584.651837518729	1
0	5927	584.685713083528	0
0	5956	590.05310271345	1
0	5957	590.067101868307	0
0	5972	592.20814236873	1
0	5973	592.231911060819	0
0	5987	592.58191948721	1
0	5988	592.653128310533	0
0	6002	593.149850411548	1
0	6003	593.227875419806	0
0	6087	602.4396869918	1
0	6088	602.46029181262	0
0	6102	603.027905393755	1
0	6103	603.095061939869	0
0	6122	606.652583018124	1
0	6123	606.722828418286	0
0	6127	606.727657420456	1
0	6128	606.809121213487	0
0	6152	609.434070252106	1
0	6153	609.517654392915	0
0	6217	615.164892662996	1
0	6218	615.180396893198	0
0	6272	623.451143650623	1
0	6273	623.503115191857	0
0	6277	623.538159876964	1
0	6278	623.589407987058	0
0	6282	623.589947496009	1
0	6283	623.675700782259	0
0	6317	626.979262226527	1
0	6320	627.126980815212	0
0	6333	627.720214428258	1
0	6334	627.805485063669	0
0	6343	628.257826629892	1
0	6344	628.313248536305	0
0	6453	642.233877629775	1
0	6454	642.27992025169	0
0	6458	642.329321120748	1
0	6460	642.339119460193	2
0	6461	642.366213046891	1
0	6464	642.452505842092	0
0	6528	650.014060751125	1
0	6529	650.051323111539	0
0	6543	651.924273413875	1
0	6544	651.927427826251	0
0	6628	663.939914162345	1
0	6629	663.943295425201	0
0	6638	664.896548539967	1
0	6640	664.95623689798	2
0	6641	664.966252431609	1
0	6644	665.05254522681	0
0	6658	665.957514312818	1
0	6660	665.96748910852	2
0	6661	666.029385116172	1
0	6664	666.115677911373	0
0	6670	666.203147882016	1
0	6671	666.31684602827	0
0	6689	668.15651699194	1
0	6690	668.218345897074	0
0	6699	668.86527927502	1
0	6700	668.901912437497	0
0	6719	672.509613310375	1
0	6720	672.580705423109	0
0	6769	680.091434524878	1
0	6770	680.110159192503	0
0	6849	692.832564209866	1
0	6850	692.881266396948	0
0	6964	708.043400350071	1
0	6966	708.112366072173	2
0	6967	708.12729543928	1
0	6970	708.213588234481	0
0	7004	714.344852316837	1
0	7006	714.351122052328	2
0	7007	714.373653417051	1
0	7010	714.459946212252	0
0	7095	723.974914233943	1
0	7096	724.003287289677	0
0	7165	730.38071977001	1
0	7166	730.417976791381	0
0	7215	736.229507339568	1
0	7216	736.305034974673	0
0	7285	746.558202662406	1
0	7286	746.629716529383	0
0	7310	748.86138134232	1
0	7312	748.931636636911	2
0	7313	748.935049461256	1
0	7316	749.021342256457	0
0	7372	753.48644045501	1
0	7373	753.551499260404	0
0	7386	757.890444556163	1
0	7387	757.960288404611	0
0	7406	758.956426321431	1
0	7407	758.980330810171	0
0	7486	764.365546681985	1
0	7487	764.405809735002	0
0	7491	764.484335809831	1
0	7492	764.492102530203	0
0	7551	769.491979233426	1
0	7552	769.538432287879	0
0	7566	770.146668690528	1
0	7567	770.189679917483	0
0	7581	771.748073989065	1
0	7582	771.769664706799	0
0	7616	773.613459150486	1
0	7617	773.681771127229	0
0	7626	774.098491036587	1
0	7627	774.123705192828	0
0	7723	783.646528353835	1
0	7724	783.754216669767	0
0	7727	783.796633115296	1
0	7728	783.840509464968	0
0	7792	791.844073980593	1
0	7793	791.848480581993	0
0	7867	798.206612780957	1
0	7868	798.289473760659	0
0	7907	804.180795456727	1
0	7908	804.22075097782	0
0	7937	808.51297068025	1
0	7938	808.532245071688	0
0	7942	808.561698030348	1
0	7943	808.618537866889	0
0	7962	810.910699609842	1
0	7963	810.992182115606	0
0	7967	811.000360369411	1
0	7968	811.078474910807	0
0	7972	811.140599113967	1
0	7973	811.164767706008	0
0	7982	811.346539861377	1
0	7983	811.35167202119	0
0	7992	811.517098843792	1
0	7993	811.560033184421	0
0	7997	811.57099657347	1
0	7998	811.646325979622	0
0	8022	813.195501594408	1
0	8023	813.270112715358	0
0	8047	816.34975018154	1
0	8048	816.406190631532	0
0	8062	818.631231138972	1
0	8063	818.670801912157	0
0	8072	819.042793433917	1
0	8075	819.169932415095	0
0	8108	822.143192738439	1
0	8109	822.179050087579	0
0	8203	832.985326991795	1
0	8204	833.063651628227	0
0	8213	833.412569374721	1
0	8214	833.420118370986	0
0	8248	836.348224574136	1
0	8249	836.35747392341	0
0	8253	836.403770466085	1
0	8254	836.443766718611	0
0	8273	837.064729675918	1
0	8274	837.082452601399	0
0	8278	837.148419569269	1
0	8279	837.1687453966	0
0	8333	841.854900710816	1
0	8334	841.871120634318	0
0	8338	841.932003352013	1
0	8339	841.957413429519	0
0	8378	845.451749168245	1
0	8379	845.501282108374	0
0	8403	850.595550746132	1
0	8404	850.603167983089	0
0	8423	852.525264433015	1
0	8426	852.643075075342	0
0	8434	852.893574810299	1
0	8435	852.940743962712	0
0	8444	853.479376065436	1
0	8445	853.500809197428	0
0	8459	855.317159823743	1
0	8461	855.339113021453	2
0	8462	855.37266951103	1
0	8465	855.458962306231	0
0	8509	862.375513923325	1
0	8510	862.426888623413	0
0	8519	862.920777704237	1
0	8520	862.955753017084	0
0	8524	862.969821272672	1
0	8526	863.014434325536	2
0	8527	863.042045812285	1
0	8530	863.128338607486	0
0	8579	872.844445755149	1
0	8581	872.8594121655	2
0	8582	872.873884224475	1
0	8585	872.960177019676	0
0	8619	877.148901255244	1
0	8620	877.175957105165	0
0	8674	881.730300218663	1
0	8676	881.741199189856	2
0	8677	881.767543514256	1
0	8680	881.853836309457	0
0	8689	882.045283371494	1
0	8690	882.051698308479	0
0	8704	883.448299680861	1
0	8705	883.488667798652	0
0	8724	885.43162635111	1
0	8725	885.480185709578	0
0	8744	886.983740898234	1
0	8745	887.052567351686	0
0	8774	890.931799690645	1
0	8777	891.063693715577	0
0	8855	898.920841860373	1
0	8856	898.983077217352	0
0	8865	899.166702730953	1
0	8866	899.167453443362	0
0	8885	900.147953430589	1
0	8886	900.23000157891	0
0	8930	905.053514948735	1
0	8931	905.12184149472	0
0	8955	907.319977105299	1
0	8956	907.329869464782	0
0	8975	909.352234606381	1
0	8976	909.409385642836	0
0	8980	909.421681344341	1
0	8981	909.495678438037	0
0	8990	909.749608290975	1
0	8991	909.778816094489	0
0	8995	909.831184107398	1
0	8996	909.86510888969	0
0	9010	910.316865047409	1
0	9011	910.348972972417	0
0	9035	911.490051006124	1
0	9036	911.541573062554	0
0	9105	919.686138072229	1
0	9106	919.766759231519	0
0	9127	921.357994831572	1
0	9128	921.375947044406	0
0	9131	921.421083409915	1
0	9132	921.462239839607	0
0	9156	924.175703521076	1
0	9157	924.211181540413	0
0	9196	930.488010352076	1
0	9197	930.502077140008	0
0	9236	936.17942051371	1
0	9237	936.244772763601	0
0	9271	941.51705668463	1
0	9273	941.524277173864	2
0	9275	941.532720417313	3
0	9276	941.584892304934	2
0	9279	941.671185100135	1
0	9282	941.757477895336	0
0	9301	942.966985209681	1
0	9302	942.978865634527	0
0	9311	943.528618719146	1
0	9312	943.542475430152	0
0	9321	944.399136359478	1
0	9322	944.466933798549	0
0	9331	944.675569698751	1
0	9332	944.689903098563	0
0	9346	945.885916646135	1
0	9347	945.931688366276	0
0	9361	947.15228865453	1
0	9362	947.196768794528	0
0	9371	947.672867423546	1
0	9372	947.738758867596	0
0	9436	953.025486660856	1
0	9437	953.103216102498	0
0	9487	957.353560567342	1
0	9488	957.429067632062	0
0	9542	961.368297673797	1
0	9543	961.448794468848	0
0	9582	965.281532979842	1
0	9583	965.337834360796	0
0	9597	966.977986306409	1
0	9599	967.002339830906	2
0	9600	967.064172884747	1
0	9603	967.150465679948	0
0	9607	967.158660841185	1
0	9609	967.194473528822	2
0	9610	967.236758475149	1
0	9614	967.277736665694	2
0	9616	967.280824985363	3
0	9617	967.32305127035	2
0	9620	967.409344065551	1
0	9623	967.495636860752	0
0	9642	970.140310632932	1
0	9643	970.218672881055	0
0	9647	970.269078780541	1
0	9648	970.304965676256	0
0	9662	971.18210160992	1
0	9663	971.244465139405	0
0	9672	971.807355235573	1
0	9673	971.885999052014	0
0	9682	972.077754911308	1
0	9683	972.095969649797	0
0	9687	972.13468459682	1
0	9688	972.182262444998	0
0	9722	977.062016813308	1
0	9723	977.106273338755	0
0	9727	977.108744181345	1
0	9728	977.192566133956	0
0	9737	977.792873312563	1
0	9738	977.814192666413	0
0	9777	979.482852119455	1
0	9778	979.511339054497	0
0	9797	980.199310962819	1
0	9798	980.206477373856	0
0	9802	980.271378413372	1
0	9803	980.292770169057	0
0	9812	980.489293148573	1
0	9813	980.514118411364	0
0	9817	980.599949997844	1
0	9818	980.600411206565	0
0	9838	983.461810446314	1
0	9839	983.529715398212	0
0	9863	986.666270182873	1
0	9864	986.744889233247	0
1	5	0.427496967907	0.086292795201
1	10	0.57500066616	0.086292795201
1	15	1.045725630543	0.086292795201
1	22	1.298089350394	0.086292795201
1	25	1.384382145595	0.161750928477
1	32	1.545781343807	0.086292795201
1	35	1.632074139008	0.090029908602
1	40	4.466551265119	0.086292795201
1	45	6.013843030779	0.086292795201
1	50	6.276133930828	0.086292795201
1	55	7.092698486911	0.086292795201
1	60	7.831670910325	0.086292795201
1	65	7.97168006093	0.086292795201
1	70	8.686357589127	0.086292795201
1	75	8.883025056619	0.086292795201
1	80	9.068563670073	0.086292795201
1	85	9.357852816153	0.086292795201
1	92	9.570590715934	0.086292795201
1	95	9.656883511135	0.100194958216
1	100	9.859732205808	0.086292795201
1	107	10.311324774711	0.086292795201
1	110	10.397617569912	0.093985596042
1	115	12.303213705624	0.086292795201
1	122	14.103001685062	0.086292795201
1	125	14.189294480263	0.126192028931
1	130	15.348824551473	0.086292795201
1	135	15.522852727768	0.086292795201
1	140	15.933294263941	0.086292795201
1	145	16.06988411871	0.086292795201
1	150	16.258024742277	0.086292795201
1	155	16.621492198447	0.086292795201
1	162	17.717014255101	0.086292795201
1	165	17.803307050302	0.149054967331
1	170	18.30185353484	0.086292795201
1	175	18.455563817875	0.086292795201
1	180	18.703604121032	0.086292795201
1	185	19.26001050597	0.086292795201
1	190	19.613820332689	0.086292795201
1	195	20.392409569342	0.086292795201
1	200	20.763687012706	0.086292795201
1	205	20.990295147543	0.086292795201
1	212	22.305846206909	0.086292795201
1	215	22.39213900211	0.112388173948
1	220	22.789627808672	0.086292795201
1	225	22.880863715706	0.086292795201
1	234	23.43268252009	0.086292795201
1	237	23.518975315291	0.163376428688
1	240	23.605268110492	0.22283237918
1	245	24.245657950594	0.086292795201
1	250	24.443705500869	0.086292795201
1	257	24.605977431061	0.086292795201
1	260	24.692270226262	0.143558257792
1	265	25.636517914144	0.086292795201
1	270	25.735638327546	0.086292795201
1	275	26.111790446316	0.086292795201
1	280	27.413184216543	0.086292795201
1	285	28.003510991858	0.086292795201
1	292	29.393944216395	0.086292795201
1	295	29.480237011596	0.14549405673
1	300	30.047079588497	0.086292795201
1	305	30.788862919262	0.086292795201
1	310	31.448531569711	0.086292795201
1	315	31.560844668603	0.086292795201
1	322	31.870558587309	0.086292795201
1	325	31.95685138251	0.163762390222
1	330	33.218597911507	0.086292795201
1	335	33.409941931746	0.086292795201
1	340	33.670733778584	0.086292795201
1	345	34.231792443391	0.086292795201
1	350	34.806543859838	0.086292795201
1	356	35.007711976735	0.125516303253
1	361	35.493279356069	0.086292795201
1	366	35.608654077174	0.086292795201
1	371	36.065258293343	0.086292795201
1	376	37.149428349894	0.086292795201
1	381	37.274968040681	0.086292795201
1	386	37.932299743293	0.086292795201
1	391	38.505713589806	0.086292795201
1	396	39.807535006745	0.086292795201
1	401	40.859632907626	0.086292795201
1	406	43.235737055287	0.086292795201
1	411	44.032315777336	0.086292795201
1	416	45.406461648584	0.086292795201
1	421	45.68928055801	0.086292795201
1	426	45.794858054911	0.086292795201
1	433	47.044634076791	0.086292795201
1	436	47.130926871992	0.087710041002
1	441	47.890758393959	0.086292795201
1	446	49.033963659366	0.086292795201
1	451	49.680821750567	0.086292795201
1	458	49.984679888116	0.086292795201
1	461	50.070972683317	0.105902918728
1	466	50.222825753121	0.086292795201
1	471	51.463134377635	0.086292795201
1	476	51.586949099737	0.086292795201
1	481	51.832224534359	0.086292795201
1	486	52.432717495247	0.086292795201
1	491	52.607446266026	0.086292795201
1	496	52.975171306812	0.086292795201
1	501	53.454680939666	0.086292795201
1	506	53.612229241849	0.086292795201
1	511	53.927640634161	0.086292795201
1	516	55.116487662095	0.086292795201
1	521	55.263900699298	0.086292795201
1	526	56.796055177371	0.086292795201
1	531	57.709217851738	0.086292795201
1	536	59.752871576527	0.086292795201
1	541	59.851255801844	0.086292795201
1	546	60.216045512243	0.086292795201
1	551	60.344857478432	0.086292795201
1	556	62.537509786814	0.086292795201
1	561	63.07673295996	0.086292795201
1	566	63.290158472429	0.086292795201
1	571	63.616272659358	0.086292795201
1	578	64.590677270927	0.086292795201
1	581	64.676970066128	0.134443391404
1	588	64.897921903192	0.086292795201
1	597	64.984214698393	0.097778387779
1	600	65.070507493594	0.159199973265
1	603	65.156800288795	0.185928003749
1	606	65.243093083996	0.259032533153
1	611	65.395191265308	0.086292795201
1	616	65.773781895177	0.086292795201
1	621	66.162368383031	0.086292795201
1	626	66.369855815907	0.086292795201
1	631	67.955745215283	0.086292795201
1	636	68.276266404569	0.086292795201
1	641	68.714551851027	0.086292795201
1	646	69.258574415706	0.086292795201
1	651	69.632549403756	0.086292795201
1	656	70.277317398119	0.086292795201
1	661	71.55452734071	0.086292795201
1	666	72.183742735949	0.086292795201
1	671	73.441984858698	0.086292795201
1	676	73.550861112102	0.086292795201
1	681	73.696043188524	0.086292795201
1	686	73.849104604672	0.086292795201
1	693	74.422952223122	0.086292795201
1	696	74.509245018323	0.136821139509
1	701	76.124684569416	0.086292795201
1	707	76.937934724168	0.086292795201
1	712	77.066648033247	0.086292795201
1	717	77.533365488476	0.086292795201
1	722	78.16278629216	0.086292795201
1	727	78.616363363333	0.086292795201
1	734	79.415513716131	0.086292795201
1	737	79.501806511332	0.110608593093
1	742	80.857830268962	0.086292795201
1	747	81.490736903342	0.086292795201
1	752	82.451861760993	0.086292795201
1	757	83.100651291443	0.086292795201
1	762	83.37434925161	0.086292795201
1	769	83.649739566988	0.086292795201
1	772	83.736032362189	0.169858233781
1	779	84.566006814281	0.086292795201
1	786	84.652299609482	0.15484177248
1	789	84.738592404683	0.120090211965
1	792	84.824885199884	0.199381530243
1	797	85.156387566306	0.086292795201
1	802	85.600859029084	0.086292795201
1	807	86.59587143406	0.086292795201
1	812	86.837308969096	0.086292795201
1	819	86.962512588186	0.086292795201
1	822	87.048805383387	0.111604052169
1	827	87.428992365039	0.086292795201
1	834	88.428214504204	0.086292795201
1	837	88.514507299405	0.155575774484
1	842	89.307247715554	0.086292795201
1	847	90.684054929529	0.086292795201
1	852	91.352791196303	0.086292795201
1	857	91.581648234026	0.086292795201
1	862	92.499015660294	0.086292795201
1	867	92.646225885711	0.086292795201
1	872	92.90291457487	0.086292795201
1	877	95.40601595948	0.086292795201
1	882	96.096410731051	0.086292795201
1	887	96.709157993522	0.086292795201
1	892	97.119227364146	0.086292795201
1	897	97.655567614494	0.086292795201
1	902	98.130539937348	0.086292795201
1	907	99.295057427311	0.086292795201
1	912	99.472040774524	0.086292795201
1	917	99.703975698924	0.086292795201
1	924	100.1651039135	0.086292795201
1	927	100.251396708701	0.141833555176
1	932	100.47313746889	0.086292795201
1	937	100.633677024841	0.086292795201
1	942	101.020361724903	0.086292795201
1	947	101.73330016923	0.086292795201
1	952	102.066776660025	0.086292795201
1	957	102.496442442618	0.086292795201
1	962	102.842907679903	0.086292795201
1	967	104.046621727132	0.086292795201
1	972	105.293854735504	0.086292795201
1	977	105.458516392563	0.086292795201
1	982	105.611016658857	0.086292795201
1	989	106.069601583751	0.086292795201
1	992	106.155894378952	0.147098032373
1	997	106.464654948839	0.086292795201
1	1002	106.775246868478	0.086292795201
1	1007	108.317554730007	0.086292795201
1	1012	108.579864067522	0.086292795201
1	1017	109.272703372209	0.086292795201
1	1022	109.606485472181	0.086292795201
1	1029	109.872362466428	0.086292795201
1	1032	109.958655261629	0.136022868108
1	1037	110.321287613337	0.086292795201
1	1042	110.757554470642	0.086292795201
1	1047	110.894694116083	0.086292795201
1	1052	113.066936345889	0.086292795201
1	1060	113.268104462786	0.135699946996
1	1063	113.354397257987	0.104708168914
1	1068	113.697818084824	0.086292795201
1	1075	113.81718539357	0.086292795201
1	1078	113.903478188771	0.143681221804
1	1083	115.469920937289	0.086292795201
1	1088	115.989159145371	0.086292795201
1	1093	116.602872115831	0.086292795201
1	1098	117.322952059101	0.086292795201
1	1103	117.772384062346	0.086292795201
1	1108	117.984738994537	0.086292795201
1	1113	118.224444792494	0.086292795201
1	1118	118.981381715084	0.086292795201
1	1123	119.490461082659	0.086292795201
1	1128	119.607455685837	0.086292795201
1	1137	119.956463765875	0.086292795201
1	1140	120.042756561076	0.157694928122
1	1143	120.129049356277	0.196946066042
1	1148	120.341399596678	0.086292795201
1	1153	120.517723032619	0.086292795201
1	1158	120.994328597274	0.086292795201
1	1163	121.874878465643	0.086292795201
1	1168	122.291517602696	0.086292795201
1	1175	122.38797996917	0.086292795201
1	1178	122.474272764371	0.131440103363
1	1183	123.603384774354	0.086292795201
1	1188	125.103497244427	0.086292795201
1	1193	125.547245424151	0.086292795201
1	1200	126.171220192604	0.086292795201
1	1205	126.257512987805	0.164249250331
1	1208	126.343805783006	0.123517122049
1	1213	126.53761678558	0.086292795201
1	1220	127.586047413528	0.086292795201
1	1225	127.672340208729	0.151064244134
1	1230	127.75863300393	0.146917525937
1	1233	127.844925799131	0.165139749472
1	1238	127.983925723147	0.086292795201
1	1243	128.082705186002	0.086292795201
1	1248	130.288403546079	0.086292795201
1	1255	130.379439491939	0.086292795201
1	1258	130.46573228714	0.115706963037
1	1263	131.512059780016	0.086292795201
1	1268	131.672115278602	0.086292795201
1	1273	132.854090509715	0.086292795201
1	1278	133.206745680161	0.086292795201
1	1283	133.34094754736	0.086292795201
1	1288	133.699467496506	0.086292795201
1	1293	133.960967146209	0.086292795201
1	1298	134.681639263982	0.086292795201
1	1303	135.00017408418	0.086292795201
1	1308	135.94783403779	0.086292795201
1	1313	136.834501217508	0.086292795201
1	1318	137.254381128188	0.086292795201
1	1323	137.427042102697	0.086292795201
1	1328	137.876192426162	0.086292795201
1	1333	137.97166889265	0.086292795201
1	1338	138.42943570242	0.086292795201
1	1345	138.735812379921	0.086292795201
1	1348	138.822105175122	0.110685784227
1	1353	139.961300465974	0.086292795201
1	1358	141.424929804564	0.086292795201
1	1363	141.876786046753	0.086292795201
1	1368	142.085391063283	0.086292795201
1	1375	142.351427042859	0.086292795201
1	1378	142.43771983806	0.096658128809
1	1385	142.68749874766	0.086292795201
1	1388	142.773791542861	0.099457554029
1	1393	142.945061394314	0.086292795201
1	1398	143.942517515027	0.086292795201
1	1405	144.13379143109	0.086292795201
1	1409	144.334959547987	0.26633063969
1	1414	144.423066937205	0.086292795201
1	1419	146.378301238119	0.086292795201
1	1424	146.886587590412	0.086292795201
1	1429	146.979317224244	0.086292795201
1	1434	147.772347668602	0.086292795201
1	1441	148.481689700499	0.086292795201
1	1444	148.5679824957	0.153717307114
1	1449	148.922670117377	0.086292795201
1	1454	149.585817741426	0.086292795201
1	1459	149.718193095276	0.086292795201
1	1464	150.45865137121	0.086292795201
1	1469	151.72150712917	0.086292795201
1	1474	151.861644931443	0.086292795201
1	1479	152.428528725745	0.086292795201
1	1484	154.530949634588	0.086292795201
1	1489	156.503291419608	0.086292795201
1	1494	157.065265451051	0.086292795201
1	1499	158.020523097918	0.086292795201
1	1504	159.136888175399	0.086292795201
1	1509	159.507361793494	0.086292795201
1	1514	159.646593938624	0.086292795201
1	1521	160.218898775377	0.086292795201
1	1526	160.305191570578	0.146045578011
1	1529	160.391484365779	0.122953780304
1	1534	160.973317762325	0.086292795201
1	1539	161.268432026935	0.086292795201
1	1548	162.844792524891	0.086292795201
1	1553	162.931085320092	0.111149955434
1	1556	163.017378115293	0.185892758217
1	1559	163.103670910494	0.258834723024
1	1564	164.152872298855	0.086292795201
1	1569	165.15384480605	0.086292795201
1	1576	165.805324817245	0.086292795201
1	1579	165.891617612446	0.158753831605
1	1584	167.374226913018	0.086292795201
1	1589	167.577717495585	0.086292795201
1	1594	167.737225059054	0.086292795201
1	1599	167.927070464771	0.086292795201
1	1604	168.020592919398	0.086292795201
1	1609	168.504132787065	0.086292795201
1	1614	168.698880205883	0.086292795201
1	1619	169.241600181138	0.086292795201
1	1624	169.403938148798	0.086292795201
1	1629	169.59763633855	0.086292795201
1	1634	169.934899603829	0.086292795201
1	1641	170.388520981369	0.086292795201
1	1644	170.47481377657	0.102543038509
1	1649	170.792010600276	0.086292795201
1	1654	171.462066746086	0.086292795201
1	1661	173.078963158877	0.086292795201
1	1664	173.165255954078	0.096985983575
1	1669	173.275611615001	0.086292795201
1	1674	173.698353856016	0.086292795201
1	1679	174.027884208765	0.086292795201
1	1684	174.40895916254	0.086292795201
1	1689	174.936437576219	0.086292795201
1	1694	175.069412893907	0.086292795201
1	1699	175.237714036894	0.086292795201
1	1704	175.561699663444	0.086292795201
1	1709	175.687862596453	0.086292795201
1	1714	176.00036596005	0.086292795201
1	1719	176.139115234209	0.086292795201
1	1724	176.959143947996	0.086292795201
1	1731	177.370985392969	0.086292795201
1	1734	177.45727818817	0.163205597673
1	1739	177.653267625249	0.086292795201
1	1744	178.277084714667	0.086292795201
1	1749	178.593081112145	0.086292795201
1	1754	178.737584824878	0.086292795201
1	1760	179.58165159159	0.086292795201
1	1765	180.121831382202	0.086292795201
1	1770	180.321404360687	0.086292795201
1	1775	180.827318022461	0.086292795201
1	1782	181.215335382717	0.086292795201
1	1785	181.301628177918	0.14324763513
1	1790	182.466639834894	0.086292795201
1	1795	183.101179223784	0.086292795201
1	1800	183.274226763239	0.086292795201
1	1805	183.48192648101	0.086292795201
1	1810	184.242203502403	0.086292795201
1	1817	184.641060695192	0.086292795201
1	1820	184.727353490393	0.171402444956
1	1825	185.324158002793	0.086292795201
1	1830	186.048200486845	0.086292795201
1	1835	186.146519913152	0.086292795201
1	1840	186.251419163223	0.086292795201
1	1847	186.395729824666	0.086292795201
1	1852	186.482022619867	0.100530201827
1	1855	186.568315415068	0.114957261729
1	1862	187.101132472849	0.086292795201
1	1865	187.18742526805	0.09087057519
1	1870	187.473581184974	0.086292795201
1	1875	188.872270632742	0.086292795201
1	1880	189.863366926112	0.086292795201
1	1885	191.641466740989	0.086292795201
1	1892	191.825844921168	0.086292795201
1	1895	191.912137716369	0.095685544414
1	1900	192.20635635731	0.086292795201
1	1905	192.315350417303	0.086292795201
1	1912	193.542716468176	0.086292795201
1	1915	193.629009263377	0.119684264642
1	1922	194.34463553746	0.086292795201
1	1925	194.430928332661	0.129908776827
1	1930	195.302369020946	0.086292795201
1	1935	196.033688267107	0.086292795201
1	1940	197.957774471	0.086292795201
1	1945	198.07586147846	0.086292795201
1	1950	198.271941586337	0.086292795201
1	1955	198.582053954497	0.086292795201
1	1962	199.154418546377	0.086292795201
1	1967	199.240711341578	0.128710654945
1	1970	199.327004136779	0.117390680136
1	1975	199.497267400093	0.086292795201
1	1980	199.708604509441	0.086292795201
1	1985	201.933791511634	0.086292795201
1	1990	202.28665335242	0.086292795201
1	1995	203.439307981253	0.086292795201
1	2000	203.627651092281	0.086292795201
1	2005	204.630109895772	0.086292795201
1	2010	204.789927168531	0.086292795201
1	2015	205.032395247242	0.086292795201
1	2020	205.118907399824	0.086292795201
1	2025	205.721869233597	0.086292795201
1	2032	206.033012394887	0.086292795201
1	2035	206.119305190088	0.153667308725
1	2040	206.597089703753	0.086292795201
1	2047	206.944991279154	0.086292795201
1	2052	207.031284074355	0.106071242364
1	2055	207.117576869556	0.131905205162
1	2060	207.294388453124	0.086292795201
1	2065	207.955935241834	0.086292795201
1	2070	208.665187821767	0.086292795201
1	2075	208.952266524422	0.086292795201
1	2080	209.529908944287	0.086292795201
1	2085	209.727903808086	0.086292795201
1	2090	209.82245020813	0.086292795201
1	2095	210.518609657347	0.086292795201
1	2100	210.742596134243	0.086292795201
1	2107	210.895260331627	0.086292795201
1	2111	211.096428448524	0.284835079996
1	2116	211.229791364494	0.086292795201
1	2123	211.44223272225	0.086292795201
1	2126	211.528525517451	0.169294472478
1	2133	211.84899172847	0.086292795201
1	2136	211.935284523671	0.169943044975
1	2141	212.593444155446	0.086292795201
1	2146	213.012714266972	0.086292795201
1	2151	213.447510301625	0.086292795201
1	2156	213.66519400247	0.086292795201
1	2161	213.804289240498	0.086292795201
1	2166	214.039344352896	0.086292795201
1	2171	214.36335083292	0.086292795201
1	2176	214.590492403349	0.086292795201
1	2181	215.911428279596	0.086292795201
1	2186	216.09625697698	0.086292795201
1	2191	216.285048471929	0.086292795201
1	2198	216.378754103106	0.086292795201
1	2201	216.465046898307	0.142576392904
1	2206	218.343361588629	0.086292795201
1	2211	218.701825921843	0.086292795201
1	2216	219.447807311684	0.086292795201
1	2221	219.661270203074	0.086292795201
1	2226	221.45182769949	0.086292795201
1	2231	221.585250482961	0.086292795201
1	2236	221.957958195227	0.086292795201
1	2241	222.488141940632	0.086292795201
1	2246	222.624344498212	0.086292795201
1	2251	222.897828816796	0.086292795201
1	2256	223.229757558903	0.086292795201
1	2261	224.836065491222	0.086292795201
1	2266	225.28094207477	0.086292795201
1	2271	226.096097169379	0.086292795201
1	2276	226.443153547914	0.086292795201
1	2281	226.656181238808	0.086292795201
1	2286	226.936955499146	0.086292795201
1	2291	227.063496657619	0.086292795201
1	2296	227.207904037716	0.086292795201
1	2303	229.428453625927	0.086292795201
1	2306	229.514746421128	0.14301326701
1	2311	230.209391262293	0.086292795201
1	2318	230.724920701481	0.086292795201
1	2323	230.811213496682	0.165325610801
1	2326	230.897506291883	0.106779617163
1	2331	231.544034755528	0.086292795201
1	2336	231.650327048913	0.086292795201
1	2341	232.198425701343	0.086292795201
1	2346	232.555812763388	0.086292795201
1	2351	232.75839103367	0.086292795201
1	2356	232.997994591557	0.086292795201
1	2361	233.538606183942	0.086292795201
1	2366	234.782565421172	0.086292795201
1	2373	235.905536966277	0.086292795201
1	2376	235.991829761478	0.145766514983
1	2381	236.091330784133	0.086292795201
1	2386	236.328368508787	0.086292795201
1	2391	236.416268340389	0.086292795201
1	2396	236.760568527938	0.086292795201
1	2401	237.174119934175	0.086292795201
1	2406	237.607085585024	0.086292795201
1	2411	237.788720293841	0.086292795201
1	2416	238.612672552999	0.086292795201
1	2421	239.42252016438	0.086292795201
1	2426	240.53766655948	0.086292795201
1	2431	240.649723813939	0.086292795201
1	2436	240.969192514132	0.086292795201
1	2443	241.090766169333	0.086292795201
1	2446	241.177058964534	0.120633827547
1	2451	241.705662134743	0.086292795201
1	2456	242.355619944075	0.086292795201
1	2462	243.367998114693	0.086292795201
1	2467	243.703734385764	0.086292795201
1	2472	244.284976403048	0.086292795201
1	2477	244.891065473567	0.086292795201
1	2482	245.351615440396	0.086292795201
1	2487	245.572692811366	0.086292795201
1	2492	245.845208892827	0.086292795201
1	2499	245.952897779732	0.086292795201
1	2502	246.039190574933	0.146042323836
1	2509	246.185320187982	0.086292795201
1	2512	246.271612983183	0.130209320265
1	2517	246.623088569848	0.086292795201
1	2522	246.782270415351	0.086292795201
1	2529	248.378333129315	0.086292795201
1	2532	248.464625924516	0.162585516002
1	2537	249.626584021329	0.086292795201
1	2542	249.724078064932	0.086292795201
1	2549	250.337338010725	0.086292795201
1	2552	250.423630805926	0.163023407398
1	2557	251.350885668493	0.086292795201
1	2562	252.296959204029	0.086292795201
1	2567	252.426462980456	0.086292795201
1	2572	253.682882503315	0.086292795201
1	2577	254.491831479961	0.086292795201
1	2582	254.727346001218	0.086292795201
1	2589	255.39921276236	0.086292795201
1	2594	255.485505557561	0.116696481889
1	2597	255.571798352762	0.09473286053
1	2604	255.904318224882	0.086292795201
1	2607	255.990611020083	0.092885099315
1	2612	257.581832445497	0.086292795201
1	2617	257.810699188571	0.086292795201
1	2622	259.000895060851	0.086292795201
1	2627	259.216608824439	0.086292795201
1	2634	259.619302060186	0.086292795201
1	2637	259.705594855387	0.113851725649
1	2642	262.031442460861	0.086292795201
1	2647	262.124624854743	0.086292795201
1	2652	262.253780998056	0.086292795201
1	2657	262.790123942953	0.086292795201
1	2662	263.141865061502	0.086292795201
1	2667	264.606120195719	0.086292795201
1	2672	265.350309667771	0.086292795201
1	2677	265.497811108167	0.086292795201
1	2684	266.160079810682	0.086292795201
1	2687	266.246372605883	0.114650449576
1	2692	266.967819103395	0.086292795201
1	2697	267.73654617044	0.086292795201
1	2702	268.059300850423	0.086292795201
1	2707	268.394820860295	0.086292795201
1	2712	268.612516917356	0.086292795201
1	2717	269.085918619723	0.086292795201
1	2722	269.512743173299	0.086292795201
1	2727	270.655352303003	0.086292795201
1	2732	271.59272989591	0.086292795201
1	2737	271.840836516004	0.086292795201
1	2744	272.633748712965	0.086292795201
1	2747	272.720041508166	0.115343387023
1	2752	272.911356613791	0.086292795201
1	2759	273.101753365775	0.086292795201
1	2764	273.188046160976	0.088328035857
1	2767	273.274338956177	0.164391478398
1	2772	273.407658081107	0.086292795201
1	2777	273.857401374274	0.086292795201
1	2782	274.098901794571	0.086292795201
1	2787	274.538056414257	0.086292795201
1	2792	276.475760930746	0.086292795201
1	2797	277.062886301346	0.086292795201
1	2802	277.902342780771	0.086292795201
1	2807	278.457011652878	0.086292795201
1	2813	279.710365723448	0.086292795201
1	2818	279.844462934714	0.086292795201
1	2823	281.00887274189	0.086292795201
1	2828	281.449419424172	0.086292795201
1	2833	281.628447698059	0.086292795201
1	2840	281.738222324707	0.086292795201
1	2843	281.824515119908	0.168874228108
1	2848	282.273281695975	0.086292795201
1	2853	282.569466129856	0.086292795201
1	2858	283.092239351743	0.086292795201
1	2863	283.832778105018	0.086292795201
1	2868	283.944953185476	0.086292795201
1	2875	285.018170491376	0.086292795201
1	2880	285.104463286577	0.160709066281
1	2883	285.190756081778	0.155158991017
1	2892	285.87750141192	0.086292795201
1	2895	285.963794207121	0.10790582949
1	2900	286.050087002322	0.187567357566
1	2903	286.136379797523	0.128729426235
1	2908	286.603275511862	0.086292795201
1	2913	286.904059661021	0.086292795201
1	2918	287.607449994724	0.086292795201
1	2923	290.091883019428	0.086292795201
1	2928	290.606030785783	0.086292795201
1	2933	291.54578925898	0.086292795201
1	2938	292.500120787139	0.086292795201
1	2943	292.717140259537	0.086292795201
1	2948	293.21664984484	0.086292795201
1	2953	293.378349983792	0.086292795201
1	2958	293.559099275662	0.086292795201
1	2963	295.511747623932	0.086292795201
1	2968	295.778656368236	0.086292795201
1	2973	296.014182182304	0.086292795201
1	2980	296.10613286992	0.086292795201
1	2983	296.192425665121	0.164462172354
1	2988	296.938830703904	0.086292795201
1	2993	297.270019728516	0.086292795201
1	3000	297.556310353866	0.086292795201
1	3003	297.642603149067	0.156326460488
1	3008	297.824348911694	0.086292795201
1	3013	298.095816198286	0.086292795201
1	3018	298.514064272821	0.086292795201
1	3023	298.902495879865	0.086292795201
1	3028	299.652059215587	0.086292795201
1	3033	301.915537906399	0.086292795201
1	3038	303.35978791329	0.086292795201
1	3043	304.045295034561	0.086292795201
1	3048	304.243915953799	0.086292795201
1	3053	304.461117616808	0.086292795201
1	3058	304.59270253155	0.086292795201
1	3063	304.984405460693	0.086292795201
1	3068	305.59975824249	0.086292795201
1	3073	305.752433375001	0.086292795201
1	3078	306.711208881743	0.086292795201
1	3085	307.566819604597	0.086292795201
1	3088	307.653112399798	0.160451849269
1	3093	308.140540362078	0.086292795201
1	3098	308.283362687921	0.086292795201
1	3103	308.463683361829	0.086292795201
1	3108	308.713347292306	0.086292795201
1	3113	309.089156810031	0.086292795201
1	3120	309.216798589677	0.086292795201
1	3123	309.303091384878	0.102857693483
1	3128	309.589862938123	0.086292795201
1	3133	310.220150616268	0.086292795201
1	3138	311.113544812029	0.086292795201
1	3143	311.594339464878	0.086292795201
1	3148	312.069651397735	0.086292795201
1	3155	312.195776230258	0.086292795201
1	3158	312.282069025459	0.11888739237
1	3164	312.61753328187	0.086292795201
1	3169	312.882199049495	0.086292795201
1	3174	313.019358346809	0.086292795201
1	3181	314.205822104901	0.086292795201
1	3184	314.292114900102	0.12284475511
1	3189	314.40557038686	0.086292795201
1	3196	315.311408894782	0.086292795201
1	3199	315.397701689983	0.097466546942
1	3204	315.87227223307	0.086292795201
1	3209	316.009321151927	0.086292795201
1	3214	316.186247644822	0.086292795201
1	3219	317.362399432651	0.086292795201
1	3224	317.749647654541	0.086292795201
1	3229	317.954475695485	0.086292795201
1	3234	318.36054869247	0.086292795201
1	3239	318.448587367465	0.086292795201
1	3244	318.755195342516	0.086292795201
1	3249	318.933162661701	0.086292795201
1	3254	321.325170400786	0.086292795201
1	3259	321.744131086718	0.086292795201
1	3264	322.775829116925	0.086292795201
1	3269	323.060560127662	0.086292795201
1	3274	323.631586887799	0.086292795201
1	3279	324.10616635111	0.086292795201
1	3284	324.594830012146	0.086292795201
1	3289	324.989439070771	0.086292795201
1	3294	325.380434326098	0.086292795201
1	3299	325.988651422546	0.086292795201
1	3304	326.594078147234	0.086292795201
1	3311	327.440999654645	0.086292795201
1	3314	327.527292449846	0.132211426256
1	3319	328.484893215104	0.086292795201
1	3324	328.606282930889	0.086292795201
1	3329	328.761155832371	0.086292795201
1	3334	329.252266805426	0.086292795201
1	3339	330.213820137824	0.086292795201
1	3344	331.059563909114	0.086292795201
1	3349	331.21674340893	0.086292795201
1	3354	331.506690451338	0.086292795201
1	3359	331.663170926688	0.086292795201
1	3364	332.348910007986	0.086292795201
1	3369	333.575990175113	0.086292795201
1	3374	334.946782162697	0.086292795201
1	3379	335.259388486335	0.086292795201
1	3384	335.404198067091	0.086292795201
1	3389	335.869257708947	0.086292795201
1	3394	336.292971710925	0.086292795201
1	3399	336.488796059129	0.086292795201
1	3404	336.829979300712	0.086292795201
1	3411	337.793385779326	0.086292795201
1	3414	337.879678574527	0.11327512248
1	3421	339.869771271232	0.086292795201
1	3424	339.956064066433	0.161439905927
1	3431	340.667087221667	0.086292795201
1	3434	340.753380016868	0.106872967528
1	3439	340.946231812371	0.086292795201
1	3444	342.133284259306	0.086292795201
1	3451	342.241599897476	0.086292795201
1	3454	342.327892692677	0.141149341972
1	3459	343.092479224755	0.086292795201
1	3464	343.430841248401	0.086292795201
1	3469	343.555454254924	0.086292795201
1	3474	344.409434634924	0.086292795201
1	3479	345.069301236668	0.086292795201
1	3484	347.431428930535	0.086292795201
1	3489	348.214998327023	0.086292795201
1	3496	348.681860630178	0.086292795201
1	3499	348.768153425379	0.144500482004
1	3504	349.027470642216	0.086292795201
1	3509	349.164064912781	0.086292795201
1	3515	349.469869499544	0.086292795201
1	3522	349.643788046828	0.086292795201
1	3527	349.730080842029	0.106869966871
1	3532	349.81637363723	0.107976739434
1	3535	349.902666432431	0.123589501192
1	3540	350.283332030749	0.086292795201
1	3545	350.601772006655	0.086292795201
1	3550	350.824005206569	0.086292795201
1	3555	350.917453462129	0.086292795201
1	3560	351.111484358318	0.086292795201
1	3565	352.002802170099	0.086292795201
1	3570	353.014275691187	0.086292795201
1	3575	353.75467914011	0.086292795201
1	3582	353.937500210672	0.086292795201
1	3585	354.023793005873	0.112944624994
1	3590	354.349408786611	0.086292795201
1	3597	355.049515779401	0.086292795201
1	3600	355.135808574602	0.138888265435
1	3607	355.304182084555	0.086292795201
1	3610	355.390474879756	0.146647950727
1	3615	356.313702877672	0.086292795201
1	3620	356.763810907151	0.086292795201
1	3625	357.002107297439	0.086292795201
1	3630	357.122091678574	0.086292795201
1	3635	358.475871043819	0.086292795201
1	3640	358.67734104887	0.086292795201
1	3645	359.295516993943	0.086292795201
1	3650	359.411006583511	0.086292795201
1	3655	359.521425163623	0.086292795201
1	3660	359.707091197941	0.086292795201
1	3665	360.0105506334	0.086292795201
1	3670	361.496515340828	0.086292795201
1	3675	362.188294742043	0.086292795201
1	3680	363.113165699305	0.086292795201
1	3685	363.783695969034	0.086292795201
1	3690	364.378186363405	0.086292795201
1	3695	365.801295109778	0.086292795201
1	3700	366.245504131723	0.086292795201
1	3705	366.677205028785	0.086292795201
1	3710	367.594583500555	0.086292795201
1	3715	367.726096321156	0.086292795201
1	3720	368.090851842561	0.086292795201
1	3725	368.868453514549	0.086292795201
1	3730	369.885435031279	0.086292795201
1	3735	372.237349929029	0.086292795201
1	3740	372.874465070971	0.086292795201
1	3745	373.068626047148	0.086292795201
1	3750	373.168591766557	0.086292795201
1	3755	373.317073323695	0.086292795201
1	3760	373.983542479585	0.086292795201
1	3765	374.154028196808	0.086292795201
1	3772	374.681044419182	0.086292795201
1	3775	374.767337214383	0.155450361277
1	3780	374.993129720938	0.086292795201
1	3785	375.233875901307	0.086292795201
1	3790	375.448841468304	0.086292795201
1	3795	375.568609340223	0.086292795201
1	3800	376.125904450636	0.086292795201
1	3805	377.994464807996	0.086292795201
1	3810	378.140415331955	0.086292795201
1	3815	378.632387568478	0.086292795201
1	3820	378.845931617416	0.086292795201
1	3825	379.468523989576	0.086292795201
1	3830	379.715340107343	0.086292795201
1	3835	379.959772106213	0.086292795201
1	3842	380.568332871242	0.086292795201
1	3845	380.654625666443	0.170444257763
1	3850	380.933458755203	0.086292795201
1	3855	381.447056408544	0.086292795201
1	3860	382.745387341703	0.086292795201
1	3866	383.580985028771	0.086292795201
1	3871	384.857835817776	0.086292795201
1	3876	385.203808407896	0.086292795201
1	3881	385.41975094642	0.086292795201
1	3886	385.926771931308	0.086292795201
1	3891	386.367858561432	0.086292795201
1	3896	386.684064873442	0.086292795201
1	3903	388.164513704579	0.086292795201
1	3906	388.25080649978	0.136813418396
1	3911	388.643094583399	0.086292795201
1	3916	389.26169130104	0.086292795201
1	3921	390.107245001918	0.086292795201
1	3928	390.44550334002	0.086292795201
1	3931	390.531796135221	0.098963603045
1	3936	390.86873616861	0.086292795201
1	3941	391.243738472133	0.086292795201
1	3946	391.577930800533	0.086292795201
1	3951	392.201906287122	0.086292795201
1	3956	392.341363191027	0.086292795201
1	3961	392.947421894561	0.086292795201
1	3966	393.159985693765	0.086292795201
1	3975	393.26406165984	0.086292795201
1	3978	393.350354455041	0.132923716013
1	3981	393.436647250242	0.184821986416
1	3986	394.520982997469	0.086292795201
1	3991	395.629550140114	0.086292795201
1	3996	395.776573924524	0.086292795201
1	4001	395.929010773762	0.086292795201
1	4006	396.039235142343	0.086292795201
1	4011	397.353530650677	0.086292795201
1	4016	399.111165868695	0.086292795201
1	4023	399.316161353546	0.086292795201
1	4026	399.402454148747	0.119726456067
1	4031	399.517251696408	0.086292795201
1	4036	400.28251631445	0.086292795201
1	4041	400.548538613814	0.086292795201
1	4046	400.909663350169	0.086292795201
1	4051	401.642299658288	0.086292795201
1	4058	403.433671447656	0.086292795201
1	4061	403.519964242857	0.09987998817
1	4066	403.720181280419	0.086292795201
1	4071	404.158881442149	0.086292795201
1	4076	404.245935603604	0.086292795201
1	4081	405.260028965578	0.086292795201
1	4086	405.536369652871	0.086292795201
1	4091	405.682259623652	0.086292795201
1	4098	406.47201304946	0.086292795201
1	4101	406.558305844661	0.13850087719
1	4106	406.90079767199	0.086292795201
1	4111	407.191031963228	0.086292795201
1	4116	407.782674060837	0.086292795201
1	4121	407.970942477716	0.086292795201
1	4126	408.089259834958	0.086292795201
1	4133	408.367052999798	0.086292795201
1	4138	408.453345794999	0.145096217937
1	4141	408.5396385902	0.091052655308
1	4148	409.112393713506	0.086292795201
1	4151	409.198686508707	0.122386378665
1	4156	409.586768071677	0.086292795201
1	4161	409.724951123487	0.086292795201
1	4166	410.1438963692	0.086292795201
1	4171	410.350837012321	0.086292795201
1	4176	411.107996569079	0.086292795201
1	4181	411.518642060945	0.086292795201
1	4186	412.955319636474	0.086292795201
1	4191	413.64021490766	0.086292795201
1	4196	414.92021821925	0.086292795201
1	4201	416.457226023368	0.086292795201
1	4206	416.922162307659	0.086292795201
1	4211	417.626984516083	0.086292795201
1	4217	417.951132473595	0.086292795201
1	4222	418.235464364235	0.086292795201
1	4229	418.578812667446	0.086292795201
1	4232	418.665105462647	0.142090140198
1	4237	420.316548348738	0.086292795201
1	4242	421.610005428174	0.086292795201
1	4247	422.985922989757	0.086292795201
1	4252	423.246200472872	0.086292795201
1	4259	424.122190967795	0.086292795201
1	4264	424.208483762996	0.116331492436
1	4267	424.294776558197	0.154145172985
1	4272	424.684315801515	0.086292795201
1	4277	425.252548596845	0.086292795201
1	4282	425.422983103585	0.086292795201
1	4289	425.647101113236	0.086292795201
1	4292	425.733393908437	0.13064708676
1	4297	426.701645868069	0.086292795201
1	4302	427.581965047805	0.086292795201
1	4307	427.747293282608	0.086292795201
1	4312	428.153426042521	0.086292795201
1	4319	428.420851747526	0.086292795201
1	4324	428.507144542727	0.10047083682
1	4329	428.593437337928	0.132209690221
1	4332	428.679730133129	0.089746054158
1	4337	428.953875695608	0.086292795201
1	4344	429.520597167818	0.086292795201
1	4347	429.606889963019	0.09961642839
1	4352	430.359828652714	0.086292795201
1	4357	430.505960555721	0.086292795201
1	4362	430.628011506683	0.086292795201
1	4367	430.926936206702	0.086292795201
1	4374	431.173429154703	0.086292795201
1	4377	431.259721949904	0.101770679752
1	4382	431.744490156555	0.086292795201
1	4389	431.965262857949	0.086292795201
1	4392	432.05155565315	0.140077463547
1	4397	432.338921208861	0.086292795201
1	4402	432.625209282674	0.086292795201
1	4407	433.545540127933	0.086292795201
1	4414	434.108949666772	0.086292795201
1	4417	434.195242461973	0.162338866203
1	4422	434.746548320555	0.086292795201
1	4429	435.002131397024	0.086292795201
1	4432	435.088424192225	0.086895507062
1	4439	435.528151281344	0.086292795201
1	4442	435.614444076545	0.118908033357
1	4447	436.142089677988	0.086292795201
1	4452	436.717086550368	0.086292795201
1	4457	437.022139155364	0.086292795201
1	4462	437.455721164885	0.086292795201
1	4469	437.652004495533	0.086292795201
1	4472	437.738297290734	0.151396118059
1	4477	439.847301734271	0.086292795201
1	4482	440.088219017698	0.086292795201
1	4487	440.513336347136	0.086292795201
1	4492	440.981333338957	0.086292795201
1	4497	441.48525121427	0.086292795201
1	4502	442.007998588958	0.086292795201
1	4511	442.198032409744	0.086292795201
1	4514	442.284325204945	0.156137094206
1	4521	442.370618000146	0.215971022594
1	4526	442.456910795347	0.144504017998
1	4529	442.543203590548	0.187874305436
1	4532	442.629496385749	0.245879873057
1	4537	443.33173920499	0.086292795201
1	4542	443.63410960153	0.086292795201
1	4547	444.237864332444	0.086292795201
1	4552	445.35970200585	0.086292795201
1	4557	445.787669799444	0.086292795201
1	4564	446.139011080226	0.086292795201
1	4568	446.340179197123	0.218793910727
1	4575	447.184427389587	0.086292795201
1	4578	447.270720184788	0.121782490418
1	4583	447.48650332094	0.086292795201
1	4588	447.58467719785	0.086292795201
1	4597	448.08318768696	0.086292795201
1	4602	448.169480482161	0.157180997
1	4605	448.255773277362	0.203659545219
1	4608	448.342066072563	0.203110331327
1	4613	448.428657436228	0.086292795201
1	4620	448.579821129747	0.086292795201
1	4625	448.666113924948	0.152101757544
1	4628	448.752406720149	0.087371001166
1	4633	449.209655782285	0.086292795201
1	4638	450.136331126833	0.086292795201
1	4645	450.563654337015	0.086292795201
1	4648	450.649947132216	0.129333610611
1	4653	451.718407703431	0.086292795201
1	4658	452.141463416928	0.086292795201
1	4663	452.47066615817	0.086292795201
1	4670	453.504149426547	0.086292795201
1	4673	453.590442221748	0.125856995041
1	4678	453.710128604465	0.086292795201
1	4683	454.971094296063	0.086292795201
1	4688	455.18951678317	0.086292795201
1	4693	455.316901722543	0.086292795201
1	4698	456.305542799905	0.086292795201
1	4703	456.938968675082	0.086292795201
1	4708	457.655503930593	0.086292795201
1	4713	458.50441838304	0.086292795201
1	4718	458.939645946007	0.086292795201
1	4723	459.536234667917	0.086292795201
1	4728	459.717427564979	0.086292795201
1	4735	460.830853645762	0.086292795201
1	4740	460.917146440963	0.136123688599
1	4743	461.003439236164	0.096141863039
1	4748	461.360235577286	0.086292795201
1	4753	461.481049760436	0.086292795201
1	4758	461.583612070015	0.086292795201
1	4763	461.765476695842	0.086292795201
1	4768	463.211547913432	0.086292795201
1	4773	463.36788061039	0.086292795201
1	4778	463.476624744402	0.086292795201
1	4783	464.464062411839	0.086292795201
1	4788	465.180369804106	0.086292795201
1	4793	465.426502464386	0.086292795201
1	4798	466.662141263322	0.086292795201
1	4803	466.912211812319	0.086292795201
1	4808	468.059639498923	0.086292795201
1	4813	468.288979082219	0.086292795201
1	4818	468.963980839084	0.086292795201
1	4825	470.52801415872	0.086292795201
1	4830	470.614306953921	0.107440228003
1	4833	470.700599749122	0.156495625575
1	4838	471.102159730806	0.086292795201
1	4843	471.236688226463	0.086292795201
1	4850	471.487742627398	0.086292795201
1	4853	471.574035422599	0.16111305552
1	4858	471.965782735709	0.086292795201
1	4865	473.013397764633	0.086292795201
1	4868	473.099690559834	0.111985799967
1	4873	473.478587503824	0.086292795201
1	4878	474.082117544425	0.086292795201
1	4883	474.17031113554	0.086292795201
1	4888	474.549401611615	0.086292795201
1	4893	474.829227728522	0.086292795201
1	4898	475.444494318577	0.086292795201
1	4903	475.804412609515	0.086292795201
1	4908	475.90487453104	0.086292795201
1	4917	476.185853408149	0.086292795201
1	4921	476.387021525046	0.22181829962
1	4926	476.473314320247	0.306922451209
1	4929	476.559607115448	0.154645405225
1	4934	478.249657132761	0.086292795201
1	4939	478.92953250054	0.086292795201
1	4946	480.922916677949	0.086292795201
1	4949	481.00920947315	0.14071802605
1	4954	481.255670418316	0.086292795201
1	4959	481.939991935888	0.086292795201
1	4964	482.390898473898	0.086292795201
1	4971	482.479930071176	0.086292795201
1	4974	482.566222866377	0.158349020742
1	4979	482.919418676029	0.086292795201
1	4984	483.418327684753	0.086292795201
1	4989	483.575618887278	0.086292795201
1	4996	484.521732828684	0.086292795201
1	4999	484.608025623885	0.167200322779
1	5004	485.476092719656	0.086292795201
1	5009	486.081388558223	0.086292795201
1	5014	487.64844118603	0.086292795201
1	5019	487.929889677654	0.086292795201
1	5024	488.072004030168	0.086292795201
1	5029	488.307146904364	0.086292795201
1	5034	489.463722432652	0.086292795201
1	5039	489.789564829622	0.086292795201
1	5044	490.818367680567	0.086292795201
1	5049	491.445411309026	0.086292795201
1	5054	491.942449901024	0.086292795201
1	5059	492.201355158252	0.086292795201
1	5064	492.378280231734	0.086292795201
1	5069	493.804792963019	0.086292795201
1	5074	494.107906255801	0.086292795201
1	5079	494.670205968018	0.086292795201
1	5086	495.255222326491	0.086292795201
1	5089	495.341515121692	0.142244561519
1	5094	496.734161994786	0.086292795201
1	5099	496.824858346289	0.086292795201
1	5104	498.851513046789	0.086292795201
1	5109	499.104571256893	0.086292795201
1	5114	499.241969078059	0.086292795201
1	5119	500.507997794706	0.086292795201
1	5124	501.00977921262	0.086292795201
1	5129	501.337789090518	0.086292795201
1	5134	501.532568361348	0.086292795201
1	5139	501.881654270735	0.086292795201
1	5144	502.092210550842	0.086292795201
1	5149	503.043170423026	0.086292795201
1	5154	503.378449863083	0.086292795201
1	5159	504.226493789754	0.086292795201
1	5164	504.994822309978	0.086292795201
1	5171	505.378718487674	0.086292795201
1	5174	505.465011282875	0.154361346093
1	5179	505.599254681967	0.086292795201
1	5184	505.870232249044	0.086292795201
1	5189	506.675708003614	0.086292795201
1	5194	506.780335000308	0.086292795201
1	5199	507.439757020974	0.086292795201
1	5204	507.659491861033	0.086292795201
1	5209	508.096268121269	0.086292795201
1	5214	509.241220272677	0.086292795201
1	5219	509.767192802061	0.086292795201
1	5224	511.449911570329	0.086292795201
1	5229	511.730480727314	0.086292795201
1	5234	512.015948664079	0.086292795201
1	5239	512.875679673313	0.086292795201
1	5244	513.684306631871	0.086292795201
1	5249	516.245677336255	0.086292795201
1	5254	516.976457900238	0.086292795201
1	5259	517.778024863551	0.086292795201
1	5264	517.879176296758	0.086292795201
1	5272	518.110353059372	0.086292795201
1	5275	518.196645854573	0.16107886612
1	5280	518.531998322159	0.086292795201
1	5285	519.027166159282	0.086292795201
1	5290	520.591064935729	0.086292795201
1	5299	520.821158698801	0.086292795201
1	5302	520.907451494002	0.130937879216
1	5305	520.993744289203	0.209136376495
1	5310	522.261124611992	0.086292795201
1	5315	522.84953031158	0.086292795201
1	5320	523.486497916987	0.086292795201
1	5325	523.922941247505	0.086292795201
1	5330	524.366879658455	0.086292795201
1	5335	524.493100569091	0.086292795201
1	5340	525.257429632789	0.086292795201
1	5345	526.062349385913	0.086292795201
1	5352	526.814731745097	0.086292795201
1	5357	526.901024540298	0.110763563245
1	5360	526.987317335499	0.13175248783
1	5365	527.265679402681	0.086292795201
1	5370	528.368618413613	0.086292795201
1	5375	528.635058352256	0.086292795201
1	5380	529.107723789015	0.086292795201
1	5385	529.314603276572	0.086292795201
1	5390	530.333360161368	0.086292795201
1	5395	530.615689775562	0.086292795201
1	5400	530.70208829996	0.086292795201
1	5405	533.634642024915	0.086292795201
1	5410	534.031462315877	0.086292795201
1	5415	535.196714480242	0.086292795201
1	5420	535.749797572231	0.086292795201
1	5425	535.898002143745	0.086292795201
1	5430	536.845462630892	0.086292795201
1	5435	538.370743721703	0.086292795201
1	5440	538.548026511343	0.086292795201
1	5445	538.749233441692	0.086292795201
1	5452	539.782337313797	0.086292795201
1	5455	539.868630108998	0.155948158054
1	5460	540.211403186159	0.086292795201
1	5465	540.504856860119	0.086292795201
1	5472	540.723384585911	0.086292795201
1	5477	540.809677381112	0.122987413028
1	5480	540.895970176313	0.165245096643
1	5485	542.933034871139	0.086292795201
1	5490	543.252375810966	0.086292795201
1	5495	543.354677097455	0.086292795201
1	5500	543.980015305366	0.086292795201
1	5505	544.206971577581	0.086292795201
1	5510	545.28261835267	0.086292795201
1	5515	545.608397938715	0.086292795201
1	5520	547.511885502704	0.086292795201
1	5527	547.889479607701	0.086292795201
1	5532	547.975772402902	0.149787504037
1	5535	548.062065198103	0.124383535268
1	5540	548.245538343872	0.086292795201
1	5545	549.087336956744	0.086292795201
1	5550	549.293479025303	0.086292795201
1	5555	549.464155469035	0.086292795201
1	5560	549.992459083393	0.086292795201
1	5565	550.213269250835	0.086292795201
1	5570	550.371540574979	0.086292795201
1	5575	551.350101809202	0.086292795201
1	5582	551.57205991424	0.086292795201
1	5587	551.658352709441	0.101887670007
1	5592	551.744645504642	0.133076112877
1	5595	551.830938299843	0.110978681649
1	5602	552.146475139195	0.086292795201
1	5605	552.232767934396	0.087189600334
1	5610	553.248905229451	0.086292795201
1	5619	553.749268843207	0.086292795201
1	5623	553.950436960104	0.26542706274
1	5626	554.036729755305	0.294795880949
1	5631	554.523973051265	0.086292795201
1	5636	554.770712812291	0.086292795201
1	5641	555.55244591228	0.086292795201
1	5646	556.167563064379	0.086292795201
1	5651	556.824839768035	0.086292795201
1	5658	557.860011324271	0.086292795201
1	5661	557.946304119472	0.16916482472
1	5666	558.112063127326	0.086292795201
1	5671	558.443978068546	0.086292795201
1	5678	558.676265765719	0.086292795201
1	5681	558.76255856092	0.089501323681
1	5686	559.13543824288	0.086292795201
1	5693	559.244844154472	0.086292795201
1	5696	559.331136949673	0.154146919445
1	5701	559.43997069687	0.086292795201
1	5708	560.553101011918	0.086292795201
1	5711	560.639393807119	0.106440800082
1	5716	561.310337962491	0.086292795201
1	5721	561.478985556063	0.086292795201
1	5726	562.617565097387	0.086292795201
1	5731	562.859865206376	0.086292795201
1	5736	563.994735443588	0.086292795201
1	5741	565.358503377496	0.086292795201
1	5746	565.998812566004	0.086292795201
1	5751	566.535536161223	0.086292795201
1	5756	566.6498604265	0.086292795201
1	5761	566.937535311884	0.086292795201
1	5766	567.503475769958	0.086292795201
1	5771	569.013337599093	0.086292795201
1	5776	570.42002365572	0.086292795201
1	5781	571.134751438896	0.086292795201
1	5786	572.413345628035	0.086292795201
1	5791	572.628860652643	0.086292795201
1	5798	572.814026653584	0.086292795201
1	5803	572.900319448785	0.13545074285
1	5806	572.986612243986	0.108867162886
1	5811	574.218475371564	0.086292795201
1	5816	574.407014924419	0.086292795201
1	5821	575.389141454437	0.086292795201
1	5828	575.533786044108	0.086292795201
1	5831	575.620078839309	0.169899122727
1	5836	575.968530348581	0.086292795201
1	5843	576.278913244975	0.086292795201
1	5846	576.365206040176	0.171662660394
1	5851	576.908762778803	0.086292795201
1	5856	577.025687631538	0.086292795201
1	5861	577.614638661998	0.086292795201
1	5866	578.259805163922	0.086292795201
1	5871	578.389117850487	0.086292795201
1	5878	579.008464178463	0.086292795201
1	5881	579.094756973664	0.117285876185
1	5886	579.468336971524	0.086292795201
1	5891	580.242493350596	0.086292795201
1	5898	580.858906790499	0.086292795201
1	5901	580.9451995857	0.152533528642
1	5906	581.195069658245	0.086292795201
1	5911	581.505583614587	0.086292795201
1	5916	583.54969505023	0.086292795201
1	5923	584.599420288327	0.086292795201
1	5928	584.685713083528	0.147611117325
1	5931	584.772005878729	0.12016836
1	5936	585.214463222393	0.086292795201
1	5941	585.740312519793	0.086292795201
1	5946	586.302418036021	0.086292795201
1	5951	589.600204992991	0.086292795201
1	5958	590.067101868307	0.086292795201
1	5961	590.153394663508	0.100291950058
1	5966	590.849464252015	0.086292795201
1	5974	592.231911060819	0.086292795201
1	5977	592.31820385602	0.11006148729
1	5982	592.528401041538	0.086292795201
1	5989	592.653128310533	0.086292795201
1	5992	592.739421105734	0.157501618524
1	5997	592.923590623858	0.086292795201
1	6004	593.227875419806	0.086292795201
1	6007	593.314168215007	0.164317803459
1	6012	593.499366805997	0.086292795201
1	6017	593.658364007907	0.086292795201
1	6022	594.56455939738	0.086292795201
1	6027	594.747152913052	0.086292795201
1	6032	594.843254351844	0.086292795201
1	6037	595.083920184369	0.086292795201
1	6042	595.896711595503	0.086292795201
1	6047	596.754259560189	0.086292795201
1	6052	596.917718487696	0.086292795201
1	6057	598.2503744251	0.086292795201
1	6062	598.471101988218	0.086292795201
1	6067	598.587367235021	0.086292795201
1	6072	598.832251643351	0.086292795201
1	6077	599.486624881388	0.086292795201
1	6082	600.465089507145	0.086292795201
1	6089	602.46029181262	0.086292795201
1	6092	602.546584607821	0.106897616021
1	6097	602.870148592177	0.086292795201
1	6104	603.095061939869	0.086292795201
1	6107	603.18135473507	0.153449341315
1	6112	605.140458616323	0.086292795201
1	6117	605.536720734499	0.086292795201
1	6124	606.722828418286	0.086292795201
1	6129	606.809121213487	0.156538195363
1	6132	606.895414008688	0.167756588232
1	6137	608.198885931586	0.086292795201
1	6142	608.933355104213	0.086292795201
1	6147	609.153864223156	0.086292795201
1	6154	609.517654392915	0.086292795201
1	6157	609.603947188116	0.16987693601
1	6162	609.859937795896	0.086292795201
1	6167	610.689259699995	0.086292795201
1	6172	611.50619504874	0.086292795201
1	6177	611.601250542639	0.086292795201
1	6182	612.123529929498	0.086292795201
1	6187	612.657539820354	0.086292795201
1	6192	612.758340463716	0.086292795201
1	6197	613.51732542448	0.086292795201
1	6202	613.891163841829	0.086292795201
1	6207	614.011356732015	0.086292795201
1	6212	615.01372267476	0.086292795201
1	6219	615.180396893198	0.086292795201
1	6222	615.266689688399	0.101797025403
1	6227	616.430228376737	0.086292795201
1	6232	617.342731744679	0.086292795201
1	6237	618.243572003388	0.086292795201
1	6242	619.353022968726	0.086292795201
1	6247	619.531100497849	0.086292795201
1	6252	620.18112882729	0.086292795201
1	6257	620.718995816971	0.086292795201
1	6262	620.977124568269	0.086292795201
1	6267	621.941974608877	0.086292795201
1	6274	623.503115191857	0.086292795201
1	6279	623.589407987058	0.138264336435
1	6284	623.675700782259	0.137540905295
1	6287	623.76199357746	0.172046081451
1	6292	623.912558637802	0.086292795201
1	6297	624.06001305517	0.086292795201
1	6302	624.757588934089	0.086292795201
1	6307	625.43301762145	0.086292795201
1	6312	626.20912340914	0.086292795201
1	6319	627.012105493516	0.086292795201
1	6323	627.213273610413	0.234011383886
1	6328	627.59955023151	0.086292795201
1	6335	627.805485063669	0.086292795201
1	6338	627.89177785887	0.171563430612
1	6345	628.313248536305	0.086292795201
1	6348	628.399541331506	0.141714701614
1	6353	628.516558521522	0.086292795201
1	6358	629.43484248198	0.086292795201
1	6363	630.414314325926	0.086292795201
1	6368	630.812501663027	0.086292795201
1	6373	631.372662732852	0.086292795201
1	6378	631.588402774316	0.086292795201
1	6383	632.046987022534	0.086292795201
1	6388	632.636898573993	0.086292795201
1	6393	632.84923999797	0.086292795201
1	6398	633.423907086132	0.086292795201
1	6403	634.20123939539	0.086292795201
1	6408	634.409106618034	0.086292795201
1	6413	635.313141351402	0.086292795201
1	6418	635.840135871724	0.086292795201
1	6423	637.041292986951	0.086292795201
1	6428	637.385085684163	0.086292795201
1	6433	637.848277006301	0.086292795201
1	6438	639.196471655239	0.086292795201
1	6443	641.166929909013	0.086292795201
1	6448	641.911901212589	0.086292795201
1	6455	642.27992025169	0.086292795201
1	6462	642.366213046891	0.132335417116
1	6465	642.452505842092	0.123184721344
1	6468	642.538798637293	0.1996791771
1	6473	642.904546028577	0.086292795201
1	6478	643.440044057292	0.086292795201
1	6483	643.947793807686	0.086292795201
1	6488	644.277610806975	0.086292795201
1	6493	645.158987363943	0.086292795201
1	6498	645.549127928684	0.086292795201
1	6503	646.620693945596	0.086292795201
1	6508	648.642792569225	0.086292795201
1	6513	649.145040605633	0.086292795201
1	6518	649.514572001604	0.086292795201
1	6523	649.663950843619	0.086292795201
1	6530	650.051323111539	0.086292795201
1	6533	650.13761590674	0.123555155615
1	6538	651.569351310349	0.086292795201
1	6545	651.927427826251	0.086292795201
1	6548	652.013720621452	0.089447207577
1	6553	652.133114983373	0.086292795201
1	6558	652.297477100329	0.086292795201
1	6563	652.44912961583	0.086292795201
1	6568	652.939468488088	0.086292795201
1	6573	654.642245949129	0.086292795201
1	6578	654.82342768873	0.086292795201
1	6583	655.086386989377	0.086292795201
1	6588	655.989518004867	0.086292795201
1	6593	656.932820529781	0.086292795201
1	6598	657.105972686335	0.086292795201
1	6603	658.875488249785	0.086292795201
1	6608	659.83434945323	0.086292795201
1	6613	661.744195237598	0.086292795201
1	6618	662.228091342829	0.086292795201
1	6623	662.91652336794	0.086292795201
1	6630	663.943295425201	0.086292795201
1	6633	664.029588220402	0.089674058057
1	6642	664.966252431609	0.086292795201
1	6645	665.05254522681	0.155996686843
1	6648	665.138838022011	0.182601124031
1	6653	665.261545504868	0.086292795201
1	6662	666.029385116172	0.086292795201
1	6665	666.115677911373	0.158163598555
1	6668	666.201970706574	0.234481598054
1	6674	666.403138823471	0.199990941455
1	6679	666.731425499727	0.086292795201
1	6684	667.55911270487	0.086292795201
1	6691	668.218345897074	0.086292795201
1	6694	668.304638692275	0.148121700335
1	6701	668.901912437497	0.086292795201
1	6704	668.988205232698	0.122925957678
1	6709	670.66368441253	0.086292795201
1	6714	672.136202384845	0.086292795201
1	6721	672.580705423109	0.086292795201
1	6724	672.66699821831	0.157384907935
1	6729	672.968836573517	0.086292795201
1	6734	676.298748962746	0.086292795201
1	6739	676.555544870688	0.086292795201
1	6744	676.70128592281	0.086292795201
1	6749	677.043250973264	0.086292795201
1	6754	677.244066971547	0.086292795201
1	6759	678.412175525921	0.086292795201
1	6764	679.819398516899	0.086292795201
1	6771	680.110159192503	0.086292795201
1	6774	680.196451987704	0.105017462826
1	6779	680.532682059999	0.086292795201
1	6784	683.625427190223	0.086292795201
1	6789	683.775877992746	0.086292795201
1	6794	684.549329505779	0.086292795201
1	6799	684.644835495911	0.086292795201
1	6804	685.555477214045	0.086292795201
1	6809	685.728936379658	0.086292795201
1	6814	687.649308875852	0.086292795201
1	6819	688.672375340375	0.086292795201
1	6824	688.800029993998	0.086292795201
1	6829	690.319370776878	0.086292795201
1	6834	691.103001881821	0.086292795201
1	6839	691.269378486259	0.086292795201
1	6844	692.600487654502	0.086292795201
1	6851	692.881266396948	0.086292795201
1	6854	692.967559192149	0.134994982283
1	6859	693.977111133881	0.086292795201
1	6864	694.185061071634	0.086292795201
1	6869	694.547174609637	0.086292795201
1	6874	694.874932707136	0.086292795201
1	6879	695.357536303413	0.086292795201
1	6884	695.766579961489	0.086292795201
1	6889	696.190039969595	0.086292795201
1	6894	696.738698576095	0.086292795201
1	6899	697.381866584058	0.086292795201
1	6904	699.017305426786	0.086292795201
1	6909	699.564106347021	0.086292795201
1	6914	699.943584814118	0.086292795201
1	6919	700.208345467093	0.086292795201
1	6924	702.313883047873	0.086292795201
1	6929	703.044804039471	0.086292795201
1	6934	703.201527449162	0.086292795201
1	6939	703.653197081122	0.086292795201
1	6944	704.596465080193	0.086292795201
1	6949	705.212903972813	0.086292795201
1	6954	705.749047905594	0.086292795201
1	6959	707.975220105883	0.086292795201
1	6968	708.12729543928	0.086292795201
1	6971	708.213588234481	0.17018788441
1	6974	708.299881029682	0.187514957509
1	6979	708.398688555198	0.086292795201
1	6984	709.89513806081	0.086292795201
1	6989	710.184061515442	0.086292795201
1	6994	713.341856074906	0.086292795201
1	6999	713.67171196168	0.086292795201
1	7008	714.373653417051	0.086292795201
1	7011	714.459946212252	0.115093895415
1	7014	714.546239007453	0.195116955125
1	7019	714.771515293336	0.086292795201
1	7025	715.579286044669	0.086292795201
1	7030	716.348596905384	0.086292795201
1	7035	716.933782771734	0.086292795201
1	7040	717.393496864157	0.086292795201
1	7045	717.552981129875	0.086292795201
1	7050	717.896167200181	0.086292795201
1	7055	718.357902006437	0.086292795201
1	7060	718.821900439166	0.086292795201
1	7065	719.019858946597	0.086292795201
1	7070	719.214524327061	0.086292795201
1	7075	719.577138246354	0.086292795201
1	7080	719.900609544486	0.086292795201
1	7085	721.986440360486	0.086292795201
1	7090	722.147737088081	0.086292795201
1	7097	724.003287289677	0.086292795201
1	7100	724.089580084878	0.114665850935
1	7105	724.566658821152	0.086292795201
1	7110	724.772052624077	0.086292795201
1	7115	724.875122370449	0.086292795201
1	7120	725.755714692006	0.086292795201
1	7125	725.89439621824	0.086292795201
1	7130	726.121020766464	0.086292795201
1	7135	726.569170548854	0.086292795201
1	7140	726.947122747858	0.086292795201
1	7145	727.423541982108	0.086292795201
1	7150	729.074096321695	0.086292795201
1	7155	729.366992513255	0.086292795201
1	7160	729.727724782092	0.086292795201
1	7167	730.417976791381	0.086292795201
1	7170	730.504269586582	0.123549816572
1	7175	730.963745664445	0.086292795201
1	7180	732.427623144674	0.086292795201
1	7185	733.85955230619	0.086292795201
1	7190	734.220486974711	0.086292795201
1	7195	735.157645657543	0.086292795201
1	7200	735.298121640989	0.086292795201
1	7205	735.850578600924	0.086292795201
1	7210	735.946525097524	0.086292795201
1	7217	736.305034974673	0.086292795201
1	7220	736.391327769874	0.161820430306
1	7225	736.549791999493	0.086292795201
1	7230	736.678878118758	0.086292795201
1	7235	737.54695454918	0.086292795201
1	7240	738.059381592019	0.086292795201
1	7245	740.160055420124	0.086292795201
1	7250	740.371156680542	0.086292795201
1	7255	740.707805617351	0.086292795201
1	7260	742.949983169151	0.086292795201
1	7265	744.399365601064	0.086292795201
1	7270	744.669826329441	0.086292795201
1	7275	744.855225658342	0.086292795201
1	7280	745.682402080768	0.086292795201
1	7287	746.629716529383	0.086292795201
1	7290	746.716009324584	0.157806662178
1	7295	747.697865169089	0.086292795201
1	7300	747.958027426225	0.086292795201
1	7305	748.238328658228	0.086292795201
1	7314	748.935049461256	0.086292795201
1	7317	749.021342256457	0.159960914137
1	7320	749.107635051658	0.175998414747
1	7325	749.414278019229	0.086292795201
1	7330	749.687490926069	0.086292795201
1	7335	749.889736211067	0.086292795201
1	7340	750.079396256354	0.086292795201
1	7345	750.28429717475	0.086292795201
1	7350	750.409560685505	0.086292795201
1	7355	751.886486030521	0.086292795201
1	7360	752.959568878615	0.086292795201
1	7365	753.331825608502	0.086292795201
1	7370	753.436623938708	0.086292795201
1	7376	753.637792055605	0.151351600595
1	7381	757.565729174513	0.086292795201
1	7388	757.960288404611	0.086292795201
1	7391	758.046581199812	0.156136643649
1	7396	758.218133649614	0.086292795201
1	7401	758.794228736728	0.086292795201
1	7408	758.980330810171	0.086292795201
1	7411	759.066623605372	0.110197283941
1	7416	759.159737210541	0.086292795201
1	7421	759.557026308061	0.086292795201
1	7426	759.862294291923	0.086292795201
1	7431	760.298330372257	0.086292795201
1	7436	761.063963458003	0.086292795201
1	7441	761.204914766312	0.086292795201
1	7446	761.425461017417	0.086292795201
1	7451	761.515085468031	0.086292795201
1	7456	761.75095754841	0.086292795201
1	7461	762.235929955916	0.086292795201
1	7466	762.42380077099	0.086292795201
1	7471	763.672523679304	0.086292795201
1	7476	764.048858005637	0.086292795201
1	7481	764.249671655012	0.086292795201
1	7488	764.405809735002	0.086292795201
1	7493	764.492102530203	0.126555848218
1	7496	764.578395325404	0.094059515573
1	7501	765.223789019406	0.086292795201
1	7506	765.605841467815	0.086292795201
1	7511	765.706184250337	0.086292795201
1	7516	765.88423871398	0.086292795201
1	7521	766.118474861491	0.086292795201
1	7526	766.433492597916	0.086292795201
1	7531	767.385845115398	0.086292795201
1	7536	768.085081648908	0.086292795201
1	7541	768.812925529388	0.086292795201
1	7546	769.056546667955	0.086292795201
1	7553	769.538432287879	0.086292795201
1	7556	769.62472508308	0.132745849654
1	7561	770.067799793918	0.086292795201
1	7568	770.189679917483	0.086292795201
1	7571	770.275972712684	0.129304022156
1	7576	771.09507121233	0.086292795201
1	7583	771.769664706799	0.086292795201
1	7586	771.855957502	0.107883512935
1	7591	772.152434013909	0.086292795201
1	7596	772.682774595512	0.086292795201
1	7601	772.880772837201	0.086292795201
1	7606	772.986365973554	0.086292795201
1	7611	773.299514109972	0.086292795201
1	7618	773.681771127229	0.086292795201
1	7621	773.76806392243	0.154604771944
1	7628	774.123705192828	0.086292795201
1	7631	774.209997988029	0.111506951442
1	7636	774.542172407726	0.086292795201
1	7641	774.931075851515	0.086292795201
1	7646	775.829037230229	0.086292795201
1	7651	776.059817782463	0.086292795201
1	7656	776.188393258146	0.086292795201
1	7661	776.777125141339	0.086292795201
1	7666	776.978212153055	0.086292795201
1	7671	777.116257990591	0.086292795201
1	7676	778.001571999349	0.086292795201
1	7681	778.257256969355	0.086292795201
1	7686	779.749502187027	0.086292795201
1	7691	780.293631525348	0.086292795201
1	7696	780.574094192158	0.086292795201
1	7701	781.107854235639	0.086292795201
1	7706	781.205968438778	0.086292795201
1	7711	781.298690671308	0.086292795201
1	7716	782.10044313495	0.086292795201
1	7721	783.639341348071	0.086292795201
1	7729	783.840509464968	0.193981111133
1	7732	783.926802260169	0.130169144873
1	7737	784.535447515918	0.086292795201
1	7742	785.053115658351	0.086292795201
1	7747	785.43468983764	0.086292795201
1	7752	785.834646967054	0.086292795201
1	7757	786.656566915087	0.086292795201
1	7762	787.857457872672	0.086292795201
1	7767	788.248981637649	0.086292795201
1	7772	789.238103856203	0.086292795201
1	7777	790.719369550041	0.086292795201
1	7782	791.153981649971	0.086292795201
1	7787	791.249707012129	0.086292795201
1	7794	791.848480581993	0.086292795201
1	7797	791.934773377194	0.090699396601
[...]
7	8719	884.969978945979	0
7	8726	885.480185709578	0
7	8729	885.566478504779	0
7	8734	886.393193729061	0
7	8739	886.651365366756	0
7	8746	887.052567351686	0
7	8749	887.138860146887	0
7	8754	888.526158548186	0
7	8759	889.262289268641	0
7	8764	889.752232290054	0
7	8769	889.952807800802	0
7	8776	890.948818393881	0
7	8780	891.149986510778	0
7	8785	891.641591658519	0
7	8790	892.135971422711	0
7	8795	892.361135115395	0
7	8800	893.342513148086	0
7	8805	895.074406627138	0
7	8810	895.217595407416	0
7	8815	895.5515073717	0
7	8820	895.988839124319	0
7	8825	896.496157489956	0
7	8830	897.370659644773	0
7	8835	897.493602026465	0
7	8840	897.800256008645	0
7	8845	898.068148723762	0
7	8850	898.44112013484	0
7	8857	898.983077217352	0
7	8860	899.069370012553	0
7	8867	899.167453443362	0
7	8870	899.253746238563	0
7	8875	899.783805727711	0
7	8880	900.068332491697	0
7	8887	900.23000157891	0
7	8890	900.316294374111	0
7	8895	900.684677092063	0
7	8900	902.069551526116	0
7	8905	902.65213823839	0
7	8910	902.910134337063	0
7	8915	903.337616021513	0
7	8920	904.033888906115	0
7	8925	904.673792311444	0
7	8932	905.12184149472	0
7	8935	905.208134289921	0
7	8940	905.619697593367	0
7	8945	905.96517047943	0
7	8950	906.308322834071	0
7	8957	907.329869464782	0
7	8960	907.416162259983	0
7	8965	907.857878771622	0
7	8970	908.112174675867	0
7	8977	909.409385642836	0
7	8982	909.495678438037	0
7	8985	909.581971233238	0
7	8992	909.778816094489	0
7	8997	909.86510888969	0
7	9000	909.951401684891	0
7	9005	910.216123986982	0
7	9012	910.348972972417	0
7	9015	910.435265767618	0
7	9020	910.865269070236	0
7	9025	911.341921624056	0
7	9030	911.442175615815	0
7	9037	911.541573062554	0
7	9040	911.627865857755	0
7	9045	913.673121263304	0
7	9050	914.564708524056	0
7	9055	915.101033102546	0
7	9060	915.948498188688	0
7	9065	916.483985363728	0
7	9070	916.889832341747	0
7	9075	917.208135388329	0
7	9080	917.534741186413	0
7	9085	917.917061790527	0
7	9090	918.202745966495	0
7	9095	918.587135719706	0
7	9100	918.755643515323	0
7	9107	919.766759231519	0
7	9110	919.85305202672	0
7	9115	920.110927840877	0
7	9120	920.687562886768	0
7	9125	921.26107172271	0
7	9133	921.462239839607	0
7	9136	921.548532634808	0
7	9141	921.645796847315	0
7	9146	922.19695708374	0
7	9151	923.051511856265	0
7	9158	924.211181540413	0
7	9161	924.297474335614	0
7	9166	925.584115913521	0
7	9171	926.273918984375	0
7	9176	927.307541786677	0
7	9181	928.347489102757	0
7	9186	929.532571794181	0
7	9191	930.064323111284	0
7	9198	930.502077140008	0
7	9201	930.588369935209	0
7	9206	931.434562281364	0
7	9211	933.253056120688	0
7	9216	933.971325999621	0
7	9221	934.467390308209	0
7	9226	935.350104715982	0
7	9231	935.681489134162	0
7	9238	936.244772763601	0
7	9241	936.331065558802	0
7	9246	936.492428788114	0
7	9251	936.870000270379	0
7	9256	937.337711576505	0
7	9261	941.280204582147	0
7	9266	941.422821010586	0
7	9277	941.584892304934	0
7	9280	941.671185100135	0
7	9283	941.757477895336	0
7	9286	941.843770690537	0
7	9291	941.968162761558	0
7	9296	942.136490648453	0
7	9303	942.978865634527	0
7	9306	943.065158429728	0
7	9313	943.542475430152	0
7	9316	943.628768225353	0
7	9323	944.466933798549	0
7	9326	944.55322659375	0
7	9333	944.689903098563	0
7	9336	944.776195893764	0
7	9341	945.763716503581	0
7	9348	945.931688366276	0
7	9351	946.017981161477	0
7	9356	946.832975168276	0
7	9363	947.196768794528	0
7	9366	947.283061589729	0
7	9373	947.738758867596	0
7	9376	947.825051662797	0
7	9381	948.496503204315	0
7	9386	948.672686157	0
7	9391	949.236469468191	0
7	9396	949.82359062368	0
7	9401	950.033160640724	0
7	9406	950.315802870615	0
7	9411	950.723995860557	0
7	9416	951.889044064029	0
7	9421	952.014619255119	0
7	9426	952.179186363111	0
7	9431	952.564042517892	0
7	9438	953.103216102498	0
7	9441	953.189508897699	0
7	9446	953.460197232752	0
7	9451	954.179171028235	0
7	9456	954.879197064261	0
7	9461	955.140133749163	0
7	9466	955.606348459951	0
7	9471	955.800639496569	0
7	9476	956.22823805213	0
7	9482	956.891977290364	0
7	9489	957.429067632062	0
7	9492	957.515360427263	0
7	9497	958.252884024927	0
7	9502	958.434773066969	0
7	9507	959.185014388297	0
7	9512	959.881583714625	0
7	9517	959.985961513159	0
7	9522	960.197178417543	0
7	9527	960.433216996985	0
7	9532	960.519641971885	0
7	9537	960.930018840837	0
7	9544	961.448794468848	0
7	9547	961.535087264049	0
7	9552	961.936619712248	0
7	9557	962.245495630613	0
7	9562	962.367668025626	0
7	9567	962.552325238502	0
7	9572	962.98116069015	0
7	9577	964.262187112375	0
7	9584	965.337834360796	0
7	9587	965.424127155997	0
7	9592	965.757584979101	0
7	9601	967.064172884747	0
7	9604	967.150465679948	0
7	9611	967.236758475149	0
7	9618	967.32305127035	0
7	9621	967.409344065551	0
7	9624	967.495636860752	0
7	9627	967.581929655953	0
7	9632	967.709575217157	0
7	9637	968.505837000617	0
7	9644	970.218672881055	0
7	9649	970.304965676256	0
7	9652	970.391258471457	0
7	9657	970.763932945385	0
7	9664	971.244465139405	0
7	9667	971.330757934606	0
7	9674	971.885999052014	0
7	9677	971.972291847215	0
7	9684	972.095969649797	0
7	9689	972.182262444998	0
7	9692	972.268555240199	0
7	9697	972.621750809037	0
7	9702	973.953497034747	0
7	9707	975.384305116217	0
7	9712	975.560048842094	0
7	9717	976.459406472491	0
7	9724	977.106273338755	0
7	9729	977.192566133956	0
7	9732	977.278858929157	0
7	9739	977.814192666413	0
7	9742	977.900485461614	0
7	9747	977.987098693464	0
7	9752	978.27589298729	0
7	9757	978.504337770962	0
7	9762	978.682961286701	0
7	9767	978.794067912586	0
7	9772	979.334296131591	0
7	9779	979.511339054497	0
7	9782	979.597631849698	0
7	9787	979.756149032785	0
7	9792	980.021096390016	0
7	9799	980.206477373856	0
7	9804	980.292770169057	0
7	9807	980.379062964258	0
7	9814	980.514118411364	0
7	9819	980.600411206565	0
7	9822	980.686704001766	0
7	9827	981.912642877743	0
7	9833	982.93541141886	0
7	9840	983.529715398212	0
7	9843	983.616008193413	0
7	9848	984.456075948229	0
7	9853	984.942180692273	0
7	9858	985.801099912723	0
7	9865	986.744889233247	0
7	9868	986.831182028448	0
7	9873	987.336786467382	0
7	9878	987.806101417453	0
7	9883	988.38194472403	0
7	9888	988.491299499543	0
7	9893	988.881217267183	0
7	9898	989.649938754733	0
7	9903	989.982999210695	0
7	9908	990.375848902069	0
7	9913	990.516046629257	0
7	9918	990.727241720596	0
7	9923	991.306860510663	0
7	9928	991.454229569492	0
7	9933	992.476437316576	0
7	9938	993.490014263073	0
7	9943	995.998707430705	0
7	9948	997.019679671555	0
7	9953	997.207102274174	0
7	9958	998.190118565166	0
7	9963	999.039689739602	0
8	21	1.298089350394	0.075458133276
8	31	1.545781343807	0.003737113401
8	91	9.570590715934	0.013902163015
8	106	10.311324774711	0.007692800841
8	121	14.103001685062	0.03989923373
8	161	17.717014255101	0.06276217213
8	211	22.305846206909	0.026095378747
8	233	23.43268252009	0.077083633487
8	236	23.518975315291	0.136539583979
8	256	24.605977431061	0.057265462591
8	291	29.393944216395	0.059201261529
8	321	31.870558587309	0.077469595021
8	353	34.921419181534	0.039223508052
8	432	47.044634076791	0.001417245801
8	457	49.984679888116	0.019610123527
8	577	64.590677270927	0.048150596203
8	587	64.897921903192	0.011485592578
8	596	64.984214698393	0.072907178064
8	599	65.070507493594	0.099635208548
8	602	65.156800288795	0.172739737952
8	692	74.422952223122	0.050528344308
8	733	79.415513716131	0.024315797892
8	768	83.649739566988	0.08356543858
8	778	84.566006814281	0.068548977279
8	785	84.652299609482	0.033797416764
8	788	84.738592404683	0.113088735042
8	818	86.962512588186	0.025311256968
8	833	88.428214504204	0.069282979283
8	923	100.1651039135	0.055540759975
8	988	106.069601583751	0.060805237172
8	1028	109.872362466428	0.049730072907
8	1055	113.181811667585	0.049407151795
8	1059	113.268104462786	0.018415373713
8	1074	113.81718539357	0.057388426603
8	1136	119.956463765875	0.071402132921
8	1139	120.042756561076	0.110653270841
8	1174	122.38797996917	0.045147308162
8	1199	126.171220192604	0.07795645513
8	1204	126.257512987805	0.037224326848
8	1219	127.586047413528	0.064771448933
8	1224	127.672340208729	0.060624730736
8	1229	127.75863300393	0.078846954271
8	1254	130.379439491939	0.029414167836
8	1344	138.735812379921	0.024392989026
8	1374	142.351427042859	0.010365333608
8	1384	142.68749874766	0.013164758828
8	1406	144.248666752786	0.180037844489
8	1440	148.481689700499	0.067424511913
8	1520	160.218898775377	0.05975278281
8	1525	160.305191570578	0.036660985103
8	1547	162.844792524891	0.024857160233
8	1552	162.931085320092	0.099599963016
8	1555	163.017378115293	0.172541927823
8	1575	165.805324817245	0.072461036404
8	1640	170.388520981369	0.016250243308
8	1660	173.078963158877	0.010693188374
8	1730	177.370985392969	0.076912802472
8	1781	181.215335382717	0.056954839929
8	1816	184.641060695192	0.085109649755
8	1846	186.395729824666	0.014237406626
8	1851	186.482022619867	0.028664466528
8	1861	187.101132472849	0.004577779989
8	1891	191.825844921168	0.009392749213
8	1911	193.542716468176	0.033391469441
8	1921	194.34463553746	0.043615981626
8	1961	199.154418546377	0.042417859744
8	1966	199.240711341578	0.031097884935
8	2031	206.033012394887	0.067374513524
8	2046	206.944991279154	0.019778447163
8	2051	207.031284074355	0.045612409961
8	2108	211.010135653323	0.198542284795
8	2122	211.44223272225	0.083001677277
8	2132	211.84899172847	0.083650249774
8	2197	216.378754103106	0.056283597703
8	2302	229.428453625927	0.056720471809
8	2317	230.724920701481	0.0790328156
8	2322	230.811213496682	0.020486821962
8	2372	235.905536966277	0.059473719782
8	2442	241.090766169333	0.034341032346
8	2498	245.952897779732	0.059749528635
8	2508	246.185320187982	0.043916525064
8	2528	248.378333129315	0.076292720801
8	2548	250.337338010725	0.076730612197
8	2588	255.39921276236	0.030403686688
8	2593	255.485505557561	0.008440065329
8	2603	255.904318224882	0.006592304114
8	2633	259.619302060186	0.027558930448
8	2683	266.160079810682	0.028357654375
8	2743	272.633748712965	0.029050591822
8	2758	273.101753365775	0.002035240656
8	2763	273.188046160976	0.078098683197
8	2839	281.738222324707	0.082581432907
8	2874	285.018170491376	0.07441627108
8	2879	285.104463286577	0.068866195816
8	2891	285.87750141192	0.021613034289
8	2894	285.963794207121	0.101274562365
8	2899	286.050087002322	0.042436631034
8	2979	296.10613286992	0.078169377153
8	2999	297.556310353866	0.070033665287
8	3084	307.566819604597	0.074159054068
8	3119	309.216798589677	0.016564898282
8	3154	312.195776230258	0.032594597169
8	3180	314.205822104901	0.036551959909
8	3195	315.311408894782	0.011173751741
8	3310	327.440999654645	0.045918631055
8	3410	337.793385779326	0.026982327279
8	3420	339.869771271232	0.075147110726
8	3430	340.667087221667	0.020580172327
8	3450	342.241599897476	0.054856546771
8	3495	348.681860630178	0.058207686803
8	3521	349.643788046828	0.02057717167
8	3526	349.730080842029	0.021683944233
8	3531	349.81637363723	0.037296705991
8	3581	353.937500210672	0.026651829793
8	3596	355.049515779401	0.052595470234
8	3606	355.304182084555	0.060355155526
8	3771	374.681044419182	0.069157566076
8	3841	380.568332871242	0.084151462562
8	3902	388.164513704579	0.050520623195
8	3927	390.44550334002	0.012670807844
8	3974	393.26406165984	0.046630920812
8	3977	393.350354455041	0.098529191215
8	4022	399.316161353546	0.033433660866
8	4057	403.433671447656	0.013587192969
8	4097	406.47201304946	0.052208081989
8	4132	408.367052999798	0.058803422736
8	4137	408.453345794999	0.004759860107
8	4147	409.112393713506	0.036093583464
8	4228	418.578812667446	0.055797344997
8	4258	424.122190967795	0.030038697235
8	4263	424.208483762996	0.067852377784
8	4288	425.647101113236	0.044354291559
8	4318	428.420851747526	0.014178041619
8	4323	428.507144542727	0.04591689502
8	4328	428.593437337928	0.003453258957
8	4343	429.520597167818	0.013323633189
8	4373	431.173429154703	0.015477884551
8	4388	431.965262857949	0.053784668346
8	4413	434.108949666772	0.076046071002
8	4428	435.002131397024	0.000602711861
8	4438	435.528151281344	0.032615238156
8	4468	437.652004495533	0.065103322858
8	4510	442.198032409744	0.069844299005
8	4513	442.284325204945	0.129678227393
8	4520	442.370618000146	0.058211222797
8	4525	442.456910795347	0.101581510235
8	4528	442.543203590548	0.159587077856
8	4565	446.253886401922	0.132501115526
8	4574	447.184427389587	0.035489695217
8	4596	448.08318768696	0.070888201799
8	4601	448.169480482161	0.117366750018
8	4604	448.255773277362	0.116817536126
8	4619	448.579821129747	0.065808962343
8	4624	448.666113924948	0.001078205965
8	4644	450.563654337015	0.04304081541
8	4669	453.504149426547	0.03956419984
8	4734	460.830853645762	0.049830893398
8	4739	460.917146440963	0.009849067838
8	4824	470.52801415872	0.021147432802
8	4829	470.614306953921	0.070202830374
8	4849	471.487742627398	0.074820260319
8	4864	473.013397764633	0.025693004766
8	4918	476.300728729845	0.135525504419
8	4920	476.387021525046	0.220629656008
8	4925	476.473314320247	0.068352610024
8	4945	480.922916677949	0.054425230849
8	4970	482.479930071176	0.072056225541
8	4995	484.521732828684	0.080907527578
8	5085	495.255222326491	0.055951766318
8	5170	505.378718487674	0.068068550892
8	5271	518.110353059372	0.074786070919
8	5298	520.821158698801	0.044645084015
8	5301	520.907451494002	0.122843581294
8	5351	526.814731745097	0.024470768044
8	5356	526.901024540298	0.045459692629
8	5451	539.782337313797	0.069655362853
8	5471	540.723384585911	0.036694617827
8	5476	540.809677381112	0.078952301442
8	5526	547.889479607701	0.063494708836
8	5531	547.975772402902	0.038090740067
8	5581	551.57205991424	0.015594874806
8	5586	551.658352709441	0.046783317676
8	5591	551.744645504642	0.024685886448
8	5601	552.146475139195	0.000896805133
8	5620	553.864144164903	0.179134267539
8	5622	553.950436960104	0.208503085748
8	5657	557.860011324271	0.082872029519
8	5677	558.676265765719	0.00320852848
8	5692	559.244844154472	0.067854124244
8	5707	560.553101011918	0.020148004881
8	5797	572.814026653584	0.049157947649
8	5802	572.900319448785	0.022574367685
8	5827	575.533786044108	0.083606327526
8	5842	576.278913244975	0.085369865193
8	5877	579.008464178463	0.030993080984
8	5897	580.858906790499	0.066240733441
8	5922	584.599420288327	0.061318322124
8	5927	584.685713083528	0.033875564799
8	5957	590.067101868307	0.013999154857
8	5973	592.231911060819	0.023768692089
8	5988	592.653128310533	0.071208823323
8	6003	593.227875419806	0.078025008258
8	6088	602.46029181262	0.02060482082
8	6103	603.095061939869	0.067156546114
8	6123	606.722828418286	0.070245400162
8	6128	606.809121213487	0.081463793031
8	6153	609.517654392915	0.083584140809
8	6218	615.180396893198	0.015504230202
8	6273	623.503115191857	0.051971541234
8	6278	623.589407987058	0.051248110094
8	6283	623.675700782259	0.08575328625
8	6320	627.126980815212	0.147718588685
8	6334	627.805485063669	0.085270635411
8	6344	628.313248536305	0.055421906413
8	6454	642.27992025169	0.046042621915
8	6461	642.366213046891	0.036891926143
8	6464	642.452505842092	0.113386381899
8	6529	650.051323111539	0.037262360414
8	6544	651.927427826251	0.003154412376
8	6629	663.943295425201	0.003381262856
8	6641	664.966252431609	0.069703891642
8	6644	665.05254522681	0.09630832883
8	6661	666.029385116172	0.071870803354
8	6664	666.115677911373	0.148188802853
8	6671	666.31684602827	0.113698146254
8	6690	668.218345897074	0.061828905134
8	6700	668.901912437497	0.036633162477
8	6720	672.580705423109	0.071092112734
8	6770	680.110159192503	0.018724667625
8	6850	692.881266396948	0.048702187082
8	6967	708.12729543928	0.083895089209
8	6970	708.213588234481	0.101222162308
8	7007	714.373653417051	0.028801100214
8	7010	714.459946212252	0.108824159924
8	7096	724.003287289677	0.028373055734
8	7166	730.417976791381	0.037257021371
8	7216	736.305034974673	0.075527635105
8	7286	746.629716529383	0.071513866977
8	7313	748.935049461256	0.073668118936
8	7316	749.021342256457	0.089705619546
8	7373	753.551499260404	0.065058805394
8	7387	757.960288404611	0.069843848448
8	7407	758.980330810171	0.02390448874
8	7487	764.405809735002	0.040263053017
8	7492	764.492102530203	0.007766720372
8	7552	769.538432287879	0.046453054453
8	7567	770.189679917483	0.043011226955
8	7582	771.769664706799	0.021590717734
8	7617	773.681771127229	0.068311976743
8	7627	774.123705192828	0.025214156241
8	7724	783.754216669767	0.107688315932
8	7728	783.840509464968	0.043876349672
8	7793	791.848480581993	0.0044066014
8	7868	798.289473760659	0.082860979702
8	7908	804.22075097782	0.039955521093
8	7938	808.532245071688	0.019274391438
8	7943	808.618537866889	0.056839836541
8	7963	810.992182115606	0.081482505764
8	7968	811.078474910807	0.078114541396
8	7973	811.164767706008	0.024168592041
8	7983	811.35167202119	0.005132159813
8	7993	811.560033184421	0.042934340629
8	7998	811.646325979622	0.075329406152
8	8023	813.270112715358	0.07461112095
8	8048	816.406190631532	0.056440449992
8	8063	818.670801912157	0.039570773185
8	8075	819.169932415095	0.127138981178
8	8109	822.179050087579	0.03585734914
8	8204	833.063651628227	0.078324636432
8	8214	833.420118370986	0.007548996265
8	8249	836.35747392341	0.009249349274
8	8254	836.443766718611	0.039996252526
8	8274	837.082452601399	0.017722925481
8	8279	837.1687453966	0.020325827331
8	8334	841.871120634318	0.016219923502
8	8339	841.957413429519	0.025410077506
8	8379	845.501282108374	0.049532940129
8	8404	850.603167983089	0.007617236957
8	8426	852.643075075342	0.117810642327
8	8435	852.940743962712	0.047169152413
8	8445	853.500809197428	0.021433131992
8	8462	855.37266951103	0.055509687287
8	8465	855.458962306231	0.119849284778
8	8510	862.426888623413	0.051374700088
8	8520	862.955753017084	0.034975312847
8	8527	863.042045812285	0.072224539613
8	8530	863.128338607486	0.11390428195
8	8582	872.873884224475	0.029438469326
8	8585	872.960177019676	0.100764854176
8	8620	877.175957105165	0.027055849921
8	8677	881.767543514256	0.037243295593
8	8680	881.853836309457	0.112637119601
8	8690	882.051698308479	0.006414936985
8	8705	883.488667798652	0.040368117791
8	8725	885.480185709578	0.048559358468
8	8745	887.052567351686	0.068826453452
8	8777	891.063693715577	0.131894024932
8	8856	898.983077217352	0.062235356979
8	8866	899.167453443362	0.000750712409
8	8886	900.23000157891	0.082048148321
8	8931	905.12184149472	0.068326545985
8	8956	907.329869464782	0.009892359483
8	8976	909.409385642836	0.057151036455
8	8981	909.495678438037	0.073997093696
8	8991	909.778816094489	0.029207803514
8	8996	909.86510888969	0.033924782292
8	9011	910.348972972417	0.032107925008
8	9036	911.541573062554	0.05152205643
8	9106	919.766759231519	0.08062115929
8	9128	921.375947044406	0.017952212834
8	9132	921.462239839607	0.041156429692
8	9157	924.211181540413	0.035478019337
8	9197	930.502077140008	0.014066787932
8	9237	936.244772763601	0.065352249891
8	9276	941.584892304934	0.067835620304
8	9279	941.671185100135	0.146907926271
8	9282	941.757477895336	0.224757478023
8	9302	942.978865634527	0.011880424846
8	9312	943.542475430152	0.013856711006
8	9322	944.466933798549	0.067797439071
8	9332	944.689903098563	0.014333399812
8	9347	945.931688366276	0.045771720141
8	9362	947.196768794528	0.044480139998
8	9372	947.738758867596	0.06589144405
8	9437	953.103216102498	0.077729441642
8	9488	957.429067632062	0.07550706472
8	9543	961.448794468848	0.080496795051
8	9583	965.337834360796	0.056301380954
8	9600	967.064172884747	0.086186578338
8	9603	967.150465679948	0.148125849042
8	9610	967.236758475149	0.078097633964
8	9617	967.32305127035	0.128577741528
8	9620	967.409344065551	0.131607399857
8	9623	967.495636860752	0.214811875389
8	9643	970.218672881055	0.078362248123
8	9648	970.304965676256	0.035886895715
8	9663	971.244465139405	0.062363529485
8	9673	971.885999052014	0.078643816441
8	9683	972.095969649797	0.018214738489
8	9688	972.182262444998	0.047577848178
8	9723	977.106273338755	0.044256525447
8	9728	977.192566133956	0.083821952611
8	9738	977.814192666413	0.02131935385
8	9778	979.511339054497	0.028486935042
8	9798	980.206477373856	0.007166411037
8	9803	980.292770169057	0.021391755685
8	9813	980.514118411364	0.024825262791
8	9818	980.600411206565	0.000461208721
8	9839	983.529715398212	0.067904951898
8	9864	986.744889233247	0.078619050374

