version 2
run General-67-20240201-11:04:16-40057
attr configname General
attr datetime 20240201-11:04:16
attr experiment General
attr inifile main.ini
attr iterationvars "$0=2.0, $1=3.5, $2=30"
attr iterationvarsf 2.0,3.5,30-
attr measurement "$0=2.0, $1=3.5, $2=30"
attr network Rete
attr processid 40057
attr repetition 7
attr replication #7
attr resultdir results
attr runnumber 67
attr seedset 67
param Rete.lambda 2.0
param Rete.a 0.3s
param Rete.b 3.5s
param Rete.c 0.1s
param Rete.d 0.3s
param Rete.mu 3.0
param Rete.source2.interArrivalTime exponential(1s/lambda)
param Rete.source2.jobServiceTime exponential(1s/mu)
param Rete.source2.deadline uniform(a,b)
param Rete.server2.j 30
param Rete.server2.V uniform(c,d)

vector 0 Rete.passiveQueue queueLength:vector ETV
attr interpolationmode sample-hold
attr title "queue length, vector"
vector 1 Rete.passiveQueue queueingTime:vector ETV
attr interpolationmode none
attr title "queueing time at dequeue, vector"
attr unit s
vector 2 Rete.sink lifeTime:vector ETV
attr interpolationmode none
attr title "lifetime of arrived jobs, vector"
attr unit s
vector 3 Rete.sink totalQueueingTime:vector ETV
attr interpolationmode none
attr title "the total time spent in queues by arrived jobs, vector"
attr unit s
vector 4 Rete.sink queuesVisited:vector ETV
attr interpolationmode none
attr title "the total number of queues visited by arrived jobs, vector"
vector 5 Rete.sink totalServiceTime:vector ETV
attr interpolationmode none
attr title "the total time spent  by arrived jobs, vector"
attr unit s
vector 6 Rete.sink totalDelayTime:vector ETV
attr interpolationmode none
attr title "the total time spent in delay nodes by arrived jobs, vector"
attr unit s
vector 7 Rete.sink delaysVisited:vector ETV
attr interpolationmode none
attr title "the total number of delays visited by arrived jobs, vector"
vector 8 Rete.sink generation:vector ETV
attr interpolationmode none
attr title "the generation of the arrived jobs, vector"
0	0	0	0
0	5	0.973675568938	1
0	6	1.047325080243	0
0	10	1.458797743463	1
0	12	1.660225863186	2
0	13	1.699984722063	1
0	16	2.352644363883	0
0	20	2.575910097513	1
0	22	2.606846695315	2
0	23	3.005304005703	1
0	27	3.387957323122	2
0	29	3.632063759626	3
0	30	3.657963647523	2
0	34	3.712402821797	3
0	36	3.83226155183	4
0	37	4.310623289343	3
0	41	4.537832389692	4
0	42	4.963282931163	3
0	45	5.615942572983	2
0	49	5.885695455617	3
0	50	6.268602214803	2
0	52	6.268602214803	1
0	54	6.921261856623	0
0	58	7.141184346877	1
0	59	7.573921498443	0
0	63	7.782725350509	1
0	64	8.226581140263	0
0	68	8.666528572888	1
0	70	8.690543835948	2
0	71	8.879240782083	1
0	75	9.052236905658	2
0	76	9.531900423903	1
0	80	9.913290707724	2
0	82	10.016272637093	3
0	83	10.184560065723	2
0	87	10.464356787341	3
0	89	10.779271256372	4
0	90	10.837219707543	3
0	94	10.924495208297	4
0	96	11.005482205553	5
0	98	11.194706408971	6
0	99	11.489879349363	5
0	103	11.572089860518	6
0	105	11.676117599952	7
0	107	12.109435010487	8
0	108	12.142538991183	7
0	112	12.325072610037	8
0	113	12.795198633003	7
0	116	13.447858274823	6
0	118	13.447858274823	5
0	119	13.447858274823	4
0	120	13.447858274823	3
0	122	14.100517916643	2
0	124	14.100517916643	1
0	126	14.753177558463	0
0	133	15.382939276949	1
0	134	15.88690587797	0
0	138	16.089823629119	1
0	140	16.095411798305	2
0	142	16.279075299717	3
0	143	16.53956551979	2
0	147	16.542543074676	3
0	149	16.660055356364	4
0	151	16.925785934142	5
0	152	17.19222516161	4
0	155	17.84488480343	3
0	159	17.847422368136	4
0	161	17.869496948553	5
0	163	18.479601629428	6
0	164	18.49754444525	5
0	167	19.15020408707	4
0	169	19.15020408707	3
0	170	19.15020408707	2
0	172	19.80286372889	1
0	176	20.030245766371	2
0	178	20.351496046734	3
0	182	20.60497699727	4
0	183	20.745793958745	3
0	184	20.745793958745	2
0	187	21.115119153716	3
0	188	21.398453600565	2
0	192	21.49226715824	3
0	193	22.051113242385	2
0	197	22.05288795148	3
0	199	22.185400246682	4
0	201	22.288599497546	5
0	203	22.473121453398	6
0	204	22.703772884205	5
0	208	22.901806177533	6
0	210	23.303262472165	7
0	211	23.356432526025	6
0	215	23.637357330804	7
0	216	24.009092167845	6
0	220	24.253673174961	7
0	222	24.410292420084	8
0	223	24.661751809665	7
0	225	24.661751809665	6
0	226	24.661751809665	5
0	227	24.661751809665	4
0	229	25.314411451485	3
0	233	25.94363333679	4
0	234	25.967071093305	3
0	236	25.967071093305	2
0	239	26.158712493914	3
0	241	26.619269677955	4
0	242	26.619730735125	3
0	244	26.619730735125	2
0	247	26.648186653031	3
0	249	26.905479297566	4
0	250	27.272390376945	3
0	254	27.716846268975	4
0	255	27.925050018765	3
0	259	27.93604464332	4
0	260	28.577709660585	3
0	263	29.230369302405	2
0	265	29.230369302405	1
0	267	29.883028944225	0
0	271	29.911397806768	1
0	272	30.535688586045	0
0	276	30.752841779293	1
0	277	31.188348227865	0
0	286	32.030419279308	1
0	288	32.081387085502	2
0	290	32.474692380496	3
0	291	32.506423003182	2
0	295	32.676431759897	3
0	296	33.159082645002	2
0	299	33.811742286822	1
0	303	34.325962699749	2
0	304	34.464401928642	1
0	307	35.117061570462	0
0	311	35.546520894434	1
0	313	35.6478210758	2
0	315	35.669487945245	3
0	316	35.769721212282	2
0	320	36.320459660676	3
0	321	36.422380854102	2
0	325	36.975778938191	3
0	326	37.075040495922	2
0	330	37.636482003523	3
0	331	37.727700137742	2
0	335	38.077397723385	3
0	337	38.101016899251	4
0	339	38.149353734191	5
0	340	38.380359779562	4
0	343	39.033019421382	3
0	346	39.685679063202	2
0	350	39.89578624908	3
0	353	40.628609293057	2
0	354	40.628609293057	1
0	355	40.628609293057	0
0	358	40.923325884658	1
0	360	41.154775181412	2
0	361	41.281268934877	1
0	365	41.494847000605	2
0	366	41.933928576697	1
0	370	42.108543187126	2
0	372	42.349839788045	3
0	374	42.509894697394	4
0	375	42.586588218517	3
0	379	42.763621791512	4
0	381	42.906826607892	5
0	382	43.239247860337	4
0	386	43.651596894829	5
0	388	43.833498737697	6
0	389	43.891907502157	5
0	392	44.544567143977	4
0	395	45.197226785797	3
0	397	45.197226785797	2
0	398	45.197226785797	1
0	401	45.284842620207	2
0	403	45.359587063837	3
0	405	45.648592372206	4
0	406	45.849886427617	3
0	409	46.502546069437	2
0	412	47.155205711257	1
0	416	47.495334576033	2
0	418	47.671965684089	3
0	420	47.676189426945	4
0	421	47.807865353077	3
0	423	47.807865353077	2
0	426	48.264793408698	3
0	427	48.460524994897	2
0	430	49.113184636717	1
0	434	49.389181930158	2
0	435	49.765844278537	1
0	439	50.312980773432	2
0	440	50.418503920357	1
0	444	50.53161671985	2
0	446	50.72341071002	3
0	447	51.071163562177	2
0	450	51.723823203997	1
0	454	52.032300722339	2
0	455	52.376482845817	1
0	459	52.410640452264	2
0	461	52.666459818125	3
0	462	53.029142487637	2
0	466	53.622960876718	3
0	467	53.681802129457	2
0	471	53.938941005097	3
0	473	54.242671985128	4
0	474	54.334461771277	3
0	478	54.53927513779	4
0	480	54.561738775733	5
0	481	54.987121413097	4
0	484	55.639781054917	3
0	488	55.757033855374	4
0	490	55.99057649449	5
0	491	56.292440696737	4
0	495	56.504601604497	5
0	496	56.945100338557	4
0	498	56.945100338557	3
0	499	56.945100338557	2
0	501	57.597759980377	1
0	505	57.673796007387	2
0	507	57.81088546451	3
0	508	58.250419622197	2
0	511	58.903079264017	1
0	514	59.555738905837	0
0	518	60.021931917027	1
0	521	60.498669135692	0
0	524	60.585961350847	1
0	526	60.644225797443	2
0	528	60.924568512757	3
0	529	61.151328777512	2
0	533	61.208819722813	3
0	535	61.336304997064	4
0	537	61.708960098697	5
0	539	61.791300463419	6
0	540	61.803988419332	5
0	544	62.051323031533	6
0	546	62.35348098268	7
0	547	62.456648061152	6
0	550	63.109307702972	5
0	554	63.148487006104	6
0	555	63.761967344792	5
0	557	63.761967344792	4
0	558	63.761967344792	3
0	561	64.011186112332	4
0	563	64.107049383072	5
0	564	64.414626986612	4
0	566	64.414626986612	3
0	567	64.414626986612	2
0	570	64.615032864987	3
0	572	64.73334517805	4
0	573	65.067286628432	3
0	576	65.719946270252	2
0	579	66.372605912072	1
0	582	67.025265553892	0
0	589	67.678436914493	1
0	591	68.052627432824	2
0	593	68.105190840709	3
0	595	68.245673887312	4
0	596	68.318925976459	3
0	599	68.971585618279	2
0	603	69.439162299512	3
0	605	69.453590306584	4
0	606	69.624245260099	3
0	610	70.040030302744	4
0	611	70.276904901919	3
0	615	70.626691063782	4
0	616	70.929564543739	3
0	619	71.582224185559	2
0	621	71.582224185559	1
0	623	72.234883827379	0
0	627	72.761682224612	1
0	628	72.887543469199	0
0	632	72.937467389926	1
0	633	73.540203111019	0
0	637	73.807310452832	1
0	638	74.192862752839	0
0	642	74.542127123217	1
0	644	74.773791961557	2
0	645	74.845522394659	1
0	649	74.877720426805	2
0	651	75.000370904286	3
0	653	75.312186900835	4
0	654	75.498182036479	3
0	658	75.692609454448	4
0	660	75.698855073043	5
0	661	76.150841678299	4
0	665	76.442462319983	5
0	667	76.527586072829	6
0	668	76.803501320119	5
0	672	77.121449625113	6
0	674	77.213710771977	7
0	676	77.420059676529	8
0	677	77.456160961939	7
0	679	77.456160961939	6
0	682	77.555730796061	7
0	684	78.07551086295	8
0	685	78.108820603759	7
0	687	78.108820603759	6
0	690	78.571348761698	7
0	692	78.587466398083	8
0	694	78.678981798504	9
0	695	78.761480245579	8
0	697	78.761480245579	7
0	700	78.886024359708	8
0	702	79.108226912236	9
0	704	79.23900863833	10
0	705	79.414139887399	9
0	707	79.414139887399	8
0	710	80.046537666534	9
0	711	80.066799529219	8
0	713	80.066799529219	7
0	716	80.108607314419	8
0	720	80.899553552378	9
0	721	81.009729759074	8
0	722	81.009729759074	7
0	723	81.009729759074	6
0	724	81.009729759074	5
0	725	81.009729759074	4
0	728	81.151747204871	5
0	730	81.231385389667	6
0	732	81.380488458636	7
0	734	81.516438575058	8
0	736	81.585002494449	9
0	737	81.662389400894	8
0	739	81.662389400894	7
0	742	81.898383257758	8
0	744	81.998267450409	9
0	745	82.315049042714	8
0	747	82.315049042714	7
0	749	82.967708684534	6
0	753	83.493535988507	7
0	754	83.620368326354	6
0	756	83.620368326354	5
0	757	83.620368326354	4
0	758	83.620368326354	3
0	761	83.631377919089	4
0	763	84.0056101431	5
0	764	84.273027968174	4
0	766	84.273027968174	3
0	767	84.273027968174	2
0	769	84.925687609994	1
0	773	85.374525228301	2
0	775	85.570552419827	3
0	776	85.578347251814	2
0	780	85.746543510781	3
0	782	85.798268355929	4
0	784	85.974129317148	5
0	786	86.093738337365	6
0	787	86.231006893634	5
0	791	86.57893000798	6
0	793	86.589500233156	7
0	795	86.595460426164	8
0	796	86.883666535454	7
0	800	87.149706143336	8
0	801	87.536326177274	7
0	804	88.188985819094	6
0	806	88.188985819094	5
0	807	88.188985819094	4
0	808	88.188985819094	3
0	811	88.265666917649	4
0	813	88.398012566646	5
0	815	88.645998786318	6
0	816	88.841645460914	5
0	818	88.841645460914	4
0	819	88.841645460914	3
0	822	89.43561459181	4
0	823	89.494305102734	3
0	826	90.146964744554	2
0	830	90.350734099816	3
0	832	90.551429612134	4
0	834	90.774320957509	5
0	836	90.787986911298	6
0	837	90.799624386374	5
0	839	90.799624386374	4
0	841	91.452284028194	3
0	845	91.755532911782	4
0	846	92.104943670014	3
0	849	92.757603311834	2
0	852	93.410262953654	1
0	854	93.410262953654	0
0	857	93.432566559715	1
0	859	93.637708844693	2
0	860	94.062922595474	1
0	863	94.715582237294	0
0	867	95.115284245082	1
0	868	95.368241879114	0
0	882	97.15304507463	1
0	883	97.753122066264	0
0	887	97.757616615986	1
0	889	97.761331336094	2
0	891	97.857291203505	3
0	892	98.405781708084	2
0	896	98.607092804059	3
0	897	99.058441349904	2
0	901	99.423356600216	3
0	903	99.600931734841	4
0	904	99.711100991724	3
0	908	99.845552611647	4
0	910	99.920653454803	5
0	911	100.363760633544	4
0	915	100.541853343868	5
0	919	101.138977151788	6
0	920	101.306690863399	5
0	923	101.309827984893	6
0	925	101.656659923034	7
0	927	101.707197840817	8
0	928	101.959350505219	7
0	930	101.959350505219	6
0	931	101.959350505219	5
0	934	102.025926434895	6
0	936	102.576000222823	7
0	937	102.612010147039	6
0	939	102.612010147039	5
0	941	103.264669788859	4
0	945	103.659840568792	5
0	946	103.917329430679	4
0	948	103.917329430679	3
0	949	103.917329430679	2
0	951	104.569989072499	1
0	955	104.895123929094	2
0	956	105.222648714319	1
0	959	105.875308356139	0
0	963	106.431573157554	1
0	965	106.492416887767	2
0	966	106.527967997959	1
0	970	107.178942153745	2
0	971	107.180627639779	1
0	975	107.192029789172	2
0	977	107.217738319865	3
0	978	107.833287281599	2
0	982	108.400671853009	3
0	983	108.485946923419	2
0	987	109.02593021427	3
0	988	109.138606565239	2
0	991	109.791266207059	1
0	995	109.999436655444	2
0	997	110.051665935088	3
0	998	110.443925848879	2
0	1002	110.762105600581	3
0	1004	111.096350599589	4
0	1005	111.096585490699	3
0	1009	111.411041645317	4
0	1011	111.531043078246	5
0	1013	111.600588509089	6
0	1015	111.701184950274	7
0	1016	111.749245132519	6
0	1020	112.091878239786	7
0	1021	112.401904774339	6
0	1025	112.745223959853	7
0	1027	112.845257942241	8
0	1028	113.054564416159	7
0	1032	113.257050126784	8
0	1034	113.5210983648	9
0	1036	113.623694210235	10
0	1037	113.707224057979	9
0	1039	113.707224057979	8
0	1040	113.707224057979	7
0	1041	113.707224057979	6
0	1044	114.152509990301	7
0	1045	114.359883699799	6
0	1047	114.359883699799	5
0	1050	114.729657411577	6
0	1052	114.774133465153	7
0	1053	115.012543341619	6
0	1055	115.012543341619	5
0	1057	115.665202983439	4
0	1059	115.665202983439	3
0	1062	115.802614654246	4
0	1064	116.245463909985	5
0	1065	116.317862625259	4
0	1067	116.317862625259	3
0	1070	116.708793627221	4
0	1071	116.970522267079	3
0	1073	116.970522267079	2
0	1076	117.35794136894	3
0	1077	117.623181908899	2
0	1081	117.985600199179	3
0	1083	118.010174755903	4
0	1084	118.275841550719	3
0	1088	118.397186100551	4
0	1090	118.703209274812	5
0	1092	118.727765308908	6
0	1094	118.78834237839	7
0	1095	118.928501192539	6
0	1099	119.140177842041	7
0	1100	119.581160834359	6
0	1104	119.689685827132	7
0	1106	120.074010983072	8
0	1108	120.161031803177	9
0	1109	120.233820476179	8
0	1111	120.233820476179	7
0	1115	121.176750706034	6
0	1116	121.176750706034	5
0	1117	121.176750706034	4
0	1118	121.176750706034	3
0	1120	121.829410347854	2
0	1122	121.829410347854	1
0	1125	121.964918676379	2
0	1126	122.482069989674	1
0	1128	122.482069989674	0
0	1131	122.686891032351	1
0	1132	123.134729631494	0
0	1136	123.194020376967	1
0	1137	123.787389273314	0
0	1141	123.912787525884	1
0	1142	124.440048915134	0
0	1146	124.761072467378	1
0	1147	125.092708556954	0
0	1151	125.591069628458	1
0	1153	125.664643186107	2
0	1155	125.67105180293	3
0	1156	125.745368198774	2
0	1160	126.080633837291	3
0	1161	126.398027840594	2
0	1165	126.739191710243	3
0	1167	126.99052149438	4
0	1168	127.050687482414	3
0	1171	127.703347124234	2
0	1175	128.015967573107	3
0	1176	128.356006766054	2
0	1180	128.42424879471	3
0	1181	129.008666407874	2
0	1185	129.329180256896	3
0	1186	129.661326049694	2
0	1190	129.740885736938	3
0	1191	130.313985691514	2
0	1195	130.762357757267	3
0	1196	130.966645333334	2
0	1200	131.039926986465	3
0	1202	131.209324286565	4
0	1203	131.619304975154	3
0	1207	131.853324812913	4
0	1209	132.010457310848	5
0	1211	132.190036876307	6
0	1212	132.271964616974	5
0	1216	132.695563086045	6
0	1218	132.792396512782	7
0	1219	132.924624258794	6
0	1223	132.931583409421	7
0	1224	133.577283900614	6
0	1226	133.577283900614	5
0	1228	134.229943542434	4
0	1230	134.229943542434	3
0	1232	134.882603184254	2
0	1234	134.882603184254	1
0	1235	134.882603184254	0
0	1248	136.562878439107	1
0	1250	136.599602355388	2
0	1252	136.775209174156	3
0	1253	137.084518813417	2
0	1257	137.503459345806	3
0	1259	137.541484576093	4
0	1260	137.737178455237	3
0	1264	137.827427639607	4
0	1265	138.389838097057	3
0	1269	138.812993889956	4
0	1270	139.042497738877	3
0	1273	139.695157380697	2
0	1275	139.695157380697	1
0	1277	140.347817022517	0
0	1281	140.529446281207	1
0	1283	140.625821531985	2
0	1286	141.290747252372	1
0	1289	141.365265674549	2
0	1291	141.903433373395	3
0	1292	141.943406894192	2
0	1296	142.108718108414	3
0	1298	142.441021474902	4
0	1300	142.487877153594	5
0	1301	142.596066536012	4
0	1305	142.973867853009	5
0	1306	143.248726177832	4
0	1310	143.294443796023	5
0	1312	143.782415058381	6
0	1313	143.901385819652	5
0	1316	144.554045461472	4
0	1318	144.554045461472	3
0	1319	144.554045461472	2
0	1322	145.190666212433	3
0	1323	145.206705103292	2
0	1327	145.474901366163	3
0	1328	145.859364745112	2
0	1330	145.859364745112	1
0	1332	146.512024386932	0
0	1341	148.600468215013	1
0	1342	149.148790563373	0
0	1351	150.026228525591	1
0	1352	150.565182662768	0
0	1361	152.294514743398	1
0	1363	152.367807209325	2
0	1365	152.727690025864	3
0	1366	152.862560621684	2
0	1370	153.254613405707	3
0	1372	153.454017151046	4
0	1373	153.515220263504	3
0	1377	153.628227639346	4
0	1378	154.167879905324	3
0	1382	154.817989240146	4
0	1383	154.820539547144	3
0	1386	155.473199188964	2
0	1390	155.492561959858	3
0	1392	155.707447419503	4
0	1394	156.053862936247	5
0	1395	156.125858830784	4
0	1397	156.125858830784	3
0	1399	156.778518472604	2
0	1402	157.431178114424	1
0	1406	157.656035765882	2
0	1407	158.083837756244	1
0	1411	158.494492214326	2
0	1413	158.530914903529	3
0	1414	158.736497398064	2
0	1417	159.389157039884	1
0	1421	159.727022468227	2
0	1422	160.041816681704	1
0	1426	160.217284337085	2
0	1428	160.241540765932	3
0	1429	160.694476323524	2
0	1432	161.347135965344	1
0	1436	161.724311654128	2
0	1437	161.999795607164	1
0	1441	162.138046046211	2
0	1442	162.652455248984	1
0	1446	162.826317614073	2
0	1449	163.595385478839	1
0	1452	164.1938341171	2
0	1453	164.248045120659	1
0	1456	164.900704762479	0
0	1465	166.563765560164	1
0	1466	167.152250145386	0
0	1470	167.373833088693	1
0	1472	167.713286682674	2
0	1473	167.804909787206	1
0	1477	167.911019159442	2
0	1478	168.457569429026	1
0	1482	168.564579520568	2
0	1484	169.03781840271	3
0	1485	169.110229070846	2
0	1488	169.762888712666	1
0	1492	170.143755826277	2
0	1494	170.413358770855	3
0	1495	170.415548354486	2
0	1499	170.417368574967	3
0	1501	170.667327872953	4
0	1502	171.068207996306	3
0	1506	171.292291494655	4
0	1508	171.663082494677	5
0	1509	171.720867638126	4
0	1513	171.821237254276	5
0	1515	171.898764890423	6
0	1516	172.373527279946	5
0	1520	172.415154026293	6
0	1522	172.723703248686	7
0	1523	173.026186921766	6
0	1525	173.026186921766	5
0	1528	173.265561460413	6
0	1530	173.305395387944	7
0	1531	173.678846563586	6
0	1535	173.930923437236	7
0	1537	173.984247544596	8
0	1539	174.246369459731	9
0	1540	174.331506205406	8
0	1542	174.331506205406	7
0	1543	174.331506205406	6
0	1546	174.658416310047	7
0	1548	174.848756244814	8
0	1549	174.984165847226	7
0	1551	174.984165847226	6
0	1554	175.601609220933	7
0	1555	175.636825489046	6
0	1557	175.636825489046	5
0	1560	176.101290229974	6
0	1562	176.268886864982	7
0	1563	176.289485130866	6
0	1565	176.289485130866	5
0	1568	176.38918290927	6
0	1570	176.707731267196	7
0	1571	176.942144772686	6
0	1573	176.942144772686	5
0	1574	176.942144772686	4
0	1577	177.070882538138	5
0	1578	177.594804414506	4
0	1581	178.247464056326	3
0	1585	178.591681570326	4
0	1586	178.900123698146	3
0	1588	178.900123698146	2
0	1589	178.900123698146	1
0	1592	179.074893883202	2
0	1594	179.445977327132	3
0	1595	179.552783339966	2
0	1599	179.570744073458	3
0	1600	180.205442981786	2
0	1604	180.320224557777	3
0	1606	180.575088628212	4
0	1607	180.858102623606	3
0	1611	181.069670453936	4
0	1612	181.510762265426	3
0	1616	181.747896125482	4
0	1618	181.828337952355	5
0	1620	182.03920498137	6
0	1621	182.163421907246	5
0	1625	182.438512084615	6
0	1627	182.551258608287	7
0	1628	182.816081549066	6
0	1630	182.816081549066	5
0	1632	183.468741190886	4
0	1636	183.634495798944	5
0	1639	184.411671420741	4
0	1640	184.411671420741	3
0	1641	184.411671420741	2
0	1644	184.544441464966	3
0	1646	184.954680730099	4
0	1648	184.978459925561	5
0	1649	185.064331062561	4
0	1651	185.064331062561	3
0	1654	185.252919937797	4
0	1656	185.261018934276	5
0	1657	185.716990704381	4
0	1660	186.369650346201	3
0	1663	187.022309988021	2
0	1667	187.620178337763	3
0	1669	187.650049955879	4
0	1670	187.674969629841	3
0	1672	187.674969629841	2
0	1673	187.674969629841	1
0	1676	188.033343820217	2
0	1678	188.23564501962	3
0	1680	188.29436264851	4
0	1681	188.327629271661	3
0	1685	188.408379068754	4
0	1686	188.980288913481	3
0	1689	189.632948555301	2
0	1692	190.285608197121	1
0	1696	190.39400616492	2
0	1698	190.744104802035	3
0	1699	190.938267838941	2
0	1701	190.938267838941	1
0	1704	191.407835081711	2
0	1705	191.590927480761	1
0	1709	191.818304276497	2
0	1711	191.925712326543	3
0	1713	191.946305326703	4
0	1714	192.243587122581	3
0	1717	192.896246764401	2
0	1721	193.120147923409	3
0	1723	193.155220934202	4
0	1725	193.29794827605	5
0	1727	193.320357214872	6
0	1728	193.548906406221	5
0	1732	193.761309190293	6
0	1733	194.201566048041	5
0	1735	194.201566048041	4
0	1738	194.449147006564	5
0	1739	194.854225689861	4
0	1743	194.951755793456	5
0	1745	195.396181485981	6
0	1747	195.441816493885	7
0	1749	195.460774362945	8
0	1750	195.506885331681	7
0	1752	195.506885331681	6
0	1753	195.506885331681	5
0	1755	196.159544973501	4
0	1759	196.760310346022	5
0	1760	196.812204615321	4
0	1763	197.464864257141	3
0	1765	197.464864257141	2
0	1768	197.911169442226	3
0	1769	198.117523898961	2
0	1771	198.117523898961	1
0	1774	198.58945226908	2
0	1775	198.770183540781	1
0	1779	198.942942795885	2
0	1780	199.422843182601	1
0	1783	200.075502824421	0
0	1787	200.303243032589	1
0	1789	200.439751458524	2
0	1790	200.728162466241	1
0	1793	201.380822108061	0
0	1797	201.433523353505	1
0	1799	201.449189531958	2
0	1801	201.465889411211	3
0	1803	201.58410915664	4
0	1805	201.64736479032	5
0	1807	201.865474735158	6
0	1809	201.904537250579	7
0	1810	202.033481749881	6
0	1813	202.686141391701	5
0	1817	203.113565955688	6
0	1818	203.338801033521	5
0	1822	203.553200265783	6
0	1824	203.678091274643	7
0	1828	203.995843365487	8
0	1829	204.281731263376	7
0	1830	204.281731263376	6
0	1831	204.281731263376	5
0	1832	204.281731263376	4
0	1833	204.281731263376	3
0	1835	204.934390905196	2
0	1838	205.587050547016	1
0	1841	206.239710188836	0
0	1853	208.066423643514	1
0	1854	208.176729895833	0
0	1858	208.288905892263	1
0	1860	208.381771501271	2
0	1862	208.809005291685	3
0	1863	208.829389537653	2
0	1867	209.146921400533	3
0	1868	209.482049179473	2
0	1872	209.708843373893	3
0	1874	210.088730206168	4
0	1876	210.108418623812	5
0	1877	210.134708821293	4
0	1880	210.787368463113	3
0	1884	211.253870714984	4
0	1885	211.440028104933	3
0	1889	211.631243253647	4
0	1891	211.771596237504	5
0	1893	211.915704832324	6
0	1895	212.029189354571	7
0	1896	212.092687746753	6
0	1900	212.533539045394	7
0	1901	212.745347388573	6
0	1903	212.745347388573	5
0	1905	213.398007030393	4
0	1909	213.855920990556	5
0	1910	214.050666672213	4
0	1912	214.050666672213	3
0	1913	214.050666672213	2
0	1916	214.189133382281	3
0	1917	214.703326314033	2
0	1919	214.703326314033	1
0	1921	215.355985955853	0
0	1925	215.492939609998	1
0	1927	215.836934775584	2
0	1928	216.008645597673	1
0	1932	216.302618241141	2
0	1933	216.661305239493	1
0	1937	216.887139182902	2
0	1939	217.10628195196	3
0	1940	217.313964881313	2
0	1944	217.666332017672	3
0	1946	217.921531708943	4
0	1947	217.966624523133	3
0	1951	218.044549041676	4
0	1953	218.077872044891	5
0	1955	218.489413120451	6
0	1956	218.619284164953	5
0	1960	218.951230440507	6
0	1962	219.1874425548	7
0	1963	219.271943806773	6
0	1966	219.924603448593	5
0	1969	220.577263090413	4
0	1971	220.577263090413	3
0	1972	220.577263090413	2
0	1973	220.577263090413	1
0	1975	221.229922732233	0
0	1979	221.438374282296	1
0	1981	221.463344620733	2
0	1983	221.872023007998	3
0	1984	221.882582374053	2
0	1987	222.535242015873	1
0	1991	223.186066035931	2
0	1992	223.187901657693	1
0	1995	223.840561299513	0
0	1999	224.246798650189	1
0	2002	224.783491529368	0
0	2010	226.45097216831	1
0	2012	227.000314302106	2
0	2013	227.001089989362	1
0	2017	227.464453701973	2
0	2018	227.653749631182	1
0	2021	228.306409273002	0
0	2035	231.612745575068	1
0	2036	232.213925882054	0
0	2040	232.353945282884	1
0	2041	232.866585523874	0
0	2045	233.398895993565	1
0	2047	233.449977202377	2
0	2049	233.457234755249	3
0	2050	233.519245165694	2
0	2053	234.171904807514	1
0	2057	234.263390868607	2
0	2058	234.824564449334	1
0	2062	235.213710109639	2
0	2063	235.477224091154	1
0	2067	235.832475131329	2
0	2068	236.129883732974	1
0	2071	236.782543374794	0
0	2075	236.823366003554	1
0	2077	236.839423089357	2
0	2079	237.318746386639	3
0	2080	237.435203016614	2
0	2083	238.087862658434	1
0	2087	238.168537439471	2
0	2089	238.465125322664	3
0	2091	238.636188298407	4
0	2092	238.740522300254	3
0	2096	238.79886467962	4
0	2097	239.393181942074	3
0	2100	240.045841583894	2
0	2103	240.698501225714	1
0	2105	240.698501225714	0
0	2113	241.935076955426	1
0	2115	242.180786506622	2
0	2116	242.362816223024	1
0	2120	242.821297791752	2
0	2122	242.82468302629	3
0	2123	243.015475864844	2
0	2127	243.22906098825	3
0	2128	243.668135506664	2
0	2132	243.88361759179	3
0	2134	243.961361530687	4
0	2136	244.217991940195	5
0	2137	244.320795148484	4
0	2141	244.49628242994	5
0	2143	244.573478690013	6
0	2145	244.718752977588	7
0	2147	244.792849050254	8
0	2149	244.913811127645	9
0	2150	244.973454790304	8
0	2153	245.626114432124	7
0	2157	246.201114244663	8
0	2158	246.278774073944	7
0	2160	246.278774073944	6
0	2161	246.278774073944	5
0	2164	246.578422907242	6
0	2166	246.582164656285	7
0	2168	246.796077494431	8
0	2169	246.931433715764	7
0	2171	246.931433715764	6
0	2172	246.931433715764	5
0	2173	246.931433715764	4
0	2176	246.986956188526	5
0	2179	247.874363945619	4
0	2182	248.460615618822	5
0	2183	248.527023587439	4
0	2187	248.847919665549	5
0	2188	249.179683229259	4
0	2190	249.179683229259	3
0	2191	249.179683229259	2
0	2192	249.179683229259	1
0	2195	249.3713974472	2
0	2197	249.451591291375	3
0	2198	249.832342871079	2
0	2202	249.963308194603	3
0	2203	250.485002512899	2
0	2207	250.812935431514	3
0	2208	251.137662154719	2
0	2212	251.357717926111	3
0	2214	251.676706510195	4
0	2215	251.790321796539	3
0	2219	251.889340923344	4
0	2220	252.442981438359	3
0	2224	252.455656125523	4
0	2226	252.754888880018	5
0	2228	252.755220842428	6
0	2229	253.095641080179	5
0	2233	253.323189910877	6
0	2234	253.748300721999	5
0	2236	253.748300721999	4
0	2239	253.815109386211	5
0	2240	254.400960363819	4
0	2244	254.777208087879	5
0	2246	254.81629526483	6
0	2247	255.053620005639	5
0	2249	255.053620005639	4
0	2250	255.053620005639	3
0	2253	255.114221462783	4
0	2255	255.354691641253	5
0	2257	255.651602767002	6
0	2258	255.706279647459	5
0	2262	255.976471669262	6
0	2264	256.075546021966	7
0	2266	256.179042240607	8
0	2268	256.236753158784	9
0	2269	256.358939289279	8
0	2273	256.791316587104	9
0	2275	256.857054987458	10
0	2276	257.011598931099	9
0	2278	257.011598931099	8
0	2280	257.664258572919	7
0	2282	257.664258572919	6
0	2284	258.316918214739	5
0	2286	258.316918214739	4
0	2287	258.316918214739	3
0	2288	258.316918214739	2
0	2289	258.316918214739	1
0	2292	258.617429075563	2
0	2294	258.888269557531	3
0	2295	258.969577856559	2
0	2297	258.969577856559	1
0	2300	259.001226203032	2
0	2301	259.622237498379	1
0	2305	259.923735435407	2
0	2306	260.274897140199	1
0	2310	260.417996391129	2
0	2312	260.566135300651	3
0	2314	260.709672175483	4
0	2315	260.927556782019	3
0	2319	261.439383773686	4
0	2320	261.580216423839	3
0	2324	261.793493923063	4
0	2325	262.232876065659	3
0	2329	262.531038672132	4
0	2330	262.885535707479	3
0	2332	262.885535707479	2
0	2335	263.415879944852	3
0	2336	263.538195349299	2
0	2340	263.847535593744	3
0	2342	263.875577309811	4
0	2344	263.901099006555	5
0	2345	264.190854991119	4
0	2349	264.692308678897	5
0	2350	264.843514632939	4
0	2353	265.496174274759	3
0	2357	265.535781140393	4
0	2359	265.649402270506	5
0	2361	265.890032593621	6
0	2362	266.148833916579	5
0	2364	266.148833916579	4
0	2365	266.148833916579	3
0	2367	266.801493558399	2
0	2371	266.827099995749	3
0	2373	266.933995947804	4
0	2375	267.120327341634	5
0	2377	267.202624481632	6
0	2379	267.33320276536	7
0	2383	267.724882750237	8
0	2384	267.744423788254	7
0	2385	267.744423788254	6
0	2388	268.369107579784	7
0	2389	268.397083430074	6
0	2393	268.879169856773	7
0	2394	269.049743071894	6
0	2396	269.049743071894	5
0	2398	269.702402713714	4
0	2400	269.702402713714	3
0	2401	269.702402713714	2
0	2404	269.704451243331	3
0	2406	269.880027600147	4
0	2408	270.05307463112	5
0	2410	270.134907800279	6
0	2412	270.16384859316	7
0	2413	270.355062355534	6
0	2417	270.544576399558	7
0	2418	271.007721997354	6
0	2420	271.007721997354	5
0	2423	271.161556956367	6
0	2425	271.278266224165	7
0	2426	271.660381639174	6
0	2430	271.934787744384	7
0	2432	271.990620349438	8
0	2433	272.313041280994	7
0	2435	272.313041280994	6
0	2436	272.313041280994	5
0	2437	272.313041280994	4
0	2440	272.850952961826	5
0	2441	272.965700922814	4
0	2445	273.30759558768	5
0	2446	273.618360564634	4
0	2448	273.618360564634	3
0	2450	274.271020206454	2
0	2452	274.271020206454	1
0	2454	274.923679848274	0
0	2458	274.998448115992	1
0	2459	275.576339490094	0
0	2473	277.651302201127	1
0	2474	277.807452140276	0
0	2478	277.936681986358	1
0	2480	278.230277524774	2
0	2482	278.361997705699	3
0	2484	278.367717011462	4
0	2485	278.460111782096	3
0	2488	279.112771423916	2
0	2492	279.223848940328	3
0	2494	279.252987152142	4
0	2495	279.765431065736	3
0	2499	280.013432852642	4
0	2500	280.418090707556	3
0	2504	280.58975450947	4
0	2505	281.070750349376	3
0	2509	281.323712139153	4
0	2510	281.723409991196	3
0	2512	281.723409991196	2
0	2514	282.376069633016	1
0	2518	282.629784484606	2
0	2520	282.997658254827	3
0	2521	283.028729274836	2
0	2524	283.681388916656	1
0	2527	284.334048558476	0
0	2531	284.435622201039	1
0	2533	284.810730607897	2
0	2534	284.986708200296	1
0	2538	285.002139352885	2
0	2539	285.639367842116	1
0	2543	285.811058838421	2
0	2544	286.292027483936	1
0	2548	286.399781875069	2
0	2550	286.592605795792	3
0	2551	286.944687125756	2
0	2555	286.981690566542	3
0	2557	287.066385418318	4
0	2560	287.887617355611	3
0	2563	287.998734653388	4
0	2564	288.540276997431	3
0	2568	289.072686391632	4
0	2569	289.192936639251	3
0	2571	289.192936639251	2
0	2572	289.192936639251	1
0	2574	289.845596281071	0
0	2578	289.901080352753	1
0	2580	290.383713907664	2
0	2581	290.498255922891	1
0	2585	290.704793980007	2
0	2586	291.150915564711	1
0	2589	291.803575206531	0
0	2598	293.071266854959	1
0	2599	293.239297942912	0
0	2603	293.436733885413	1
0	2605	293.710886123696	2
0	2606	293.891957584732	1
0	2610	294.405546696709	2
0	2611	294.544617226552	1
0	2615	294.906874767362	2
0	2616	295.197276868372	1
0	2620	295.620374200145	2
0	2621	295.849936510192	1
0	2625	296.281434897044	2
0	2626	296.502596152012	1
0	2630	296.928503442876	2
0	2631	297.155255793832	1
0	2635	297.543468984971	2
0	2637	297.603336556435	3
0	2638	297.807915435652	2
0	2642	298.254424602854	3
0	2643	298.460575077472	2
0	2647	298.602341041528	3
0	2648	299.113234719292	2
0	2652	299.185427579377	3
0	2654	299.574976888325	4
0	2656	299.712451256472	5
0	2658	299.755760641701	6
0	2659	299.765894361112	5
0	2663	300.249893533493	6
0	2665	300.285195283109	7
0	2666	300.418554002932	6
0	2670	300.482084693159	7
0	2672	300.801284344005	8
0	2674	300.896282404889	9
0	2675	301.071213644752	8
0	2678	301.723873286572	7
0	2680	301.723873286572	6
0	2682	302.376532928392	5
0	2684	302.376532928392	4
0	2685	302.376532928392	3
0	2686	302.376532928392	2
0	2688	303.029192570212	1
0	2690	303.029192570212	0
0	2701	304.592759462196	1
0	2702	304.871171181525	0
0	2706	305.019964168618	1
0	2708	305.035503042014	2
0	2710	305.449411449129	3
0	2711	305.523830823345	2
0	2715	305.576356661096	3
0	2717	305.777669342701	4
0	2719	306.071721825718	5
0	2720	306.176490465165	4
0	2724	306.303244349167	5
0	2726	306.418884711092	6
0	2727	306.829150106985	5
0	2731	307.132180826695	6
0	2733	307.164958471751	7
0	2734	307.481809748805	6
0	2738	308.031357954734	7
0	2741	308.42473997866	6
0	2742	308.42473997866	5
0	2743	308.42473997866	4
0	2744	308.42473997866	3
0	2746	309.07739962048	2
0	2750	309.187535173611	3
0	2751	309.7300592623	2
0	2753	309.7300592623	1
0	2756	309.811676260024	2
0	2757	310.38271890412	1
0	2761	310.567570587866	2
0	2763	310.672041679428	3
0	2765	310.880381859363	4
0	2766	311.03537854594	3
0	2770	311.349297341429	4
0	2772	311.450983171429	5
0	2773	311.68803818776	4
0	2777	311.925212440216	5
0	2779	312.162190392421	6
0	2780	312.34069782958	5
0	2784	312.535813765924	6
0	2786	312.717341199023	7
0	2787	312.9933574714	6
0	2789	312.9933574714	5
0	2792	313.021684473846	6
0	2793	313.64601711322	5
0	2795	313.64601711322	4
0	2798	313.864821410295	5
0	2799	314.29867675504	4
0	2801	314.29867675504	3
0	2804	314.444376590807	4
0	2806	314.526535454218	5
0	2807	314.95133639686	4
0	2809	314.95133639686	3
0	2812	315.561394163679	4
0	2813	315.60399603868	3
0	2817	316.051960448951	4
0	2818	316.2566556805	3
0	2822	316.529460868843	4
0	2823	316.90931532232	3
0	2825	316.90931532232	2
0	2827	317.56197496414	1
0	2831	318.048896422848	2
0	2833	318.092503155955	3
0	2834	318.21463460596	2
0	2838	318.863305791014	3
0	2839	318.86729424778	2
0	2842	319.5199538896	1
0	2845	320.17261353142	0
0	2854	321.064876679011	1
0	2856	321.248004335987	2
0	2858	321.312383920509	3
0	2860	321.428706761817	4
0	2861	321.615530767959	3
0	2864	322.268190409779	2
0	2867	322.920850051599	1
0	2871	322.971026209636	2
0	2873	323.083359133845	3
0	2874	323.573509693419	2
0	2876	323.573509693419	1
0	2879	323.601186263549	2
0	2881	324.064219995264	3
0	2882	324.226169335239	2
0	2885	324.878828977059	1
0	2889	324.9126379894	2
0	2890	325.531488618879	1
0	2894	325.927168167653	2
0	2896	325.990674225799	3
0	2897	326.184148260699	2
0	2901	326.336207946111	3
0	2902	326.836807902519	2
0	2906	327.289716915092	3
0	2907	327.489467544339	2
0	2912	328.432397774194	1
0	2913	328.432397774194	0
0	2916	328.654436790863	1
0	2918	328.797251446513	2
0	2919	329.085057416014	1
0	2923	329.397641009908	2
0	2925	329.418385947982	3
0	2927	329.580545129765	4
0	2928	329.737717057834	3
0	2932	329.873518554434	4
0	2934	330.385846367153	5
0	2935	330.390376699654	4
0	2939	330.547753207204	5
0	2940	331.043036341474	4
0	2944	331.186307411798	5
0	2946	331.253127263193	6
0	2948	331.636341997703	7
0	2949	331.695695983294	6
0	2951	331.695695983294	5
0	2954	332.10388150638	6
0	2956	332.159666708806	7
0	2957	332.348355625114	6
0	2961	332.785732872928	7
0	2963	332.814797147365	8
0	2965	332.905977630514	9
0	2966	333.001015266934	8
0	2968	333.001015266934	7
0	2971	333.48464323368	8
0	2972	333.653674908754	7
0	2974	333.653674908754	6
0	2977	333.794177455121	7
0	2978	334.306334550574	6
0	2980	334.306334550574	5
0	2981	334.306334550574	4
0	2984	334.341100441105	5
0	2985	334.958994192394	4
0	2987	334.958994192394	3
0	2988	334.958994192394	2
0	2991	335.386618176065	3
0	2992	335.611653834214	2
0	2995	336.264313476034	1
0	2999	336.448972587441	2
0	3000	336.916973117854	1
0	3004	337.467553808053	2
0	3006	337.499893900845	3
0	3007	337.569632759674	2
0	3011	337.793653772072	3
0	3012	338.222292401494	2
0	3015	338.874952043314	1
0	3019	339.423733283252	2
0	3020	339.527611685134	1
0	3024	339.609859947611	2
0	3026	340.054507629846	3
0	3027	340.180271326954	2
0	3031	340.283973633479	3
0	3033	340.489779128281	4
0	3035	340.763993553936	5
0	3036	340.832930968774	4
0	3040	340.970218758705	5
0	3041	341.485590610594	4
0	3045	341.734911622359	5
0	3047	342.024925163578	6
0	3049	342.134888433333	7
0	3050	342.138250252414	6
0	3054	342.282493866599	7
0	3056	342.602771206635	8
0	3058	342.765633721307	9
0	3059	342.790909894234	8
0	3061	342.790909894234	7
0	3064	342.795175412478	8
0	3066	342.999125076841	9
0	3068	343.007003733144	10
0	3070	343.224280446188	11
0	3071	343.443569536054	10
0	3073	343.443569536054	9
0	3076	343.444098761181	10
0	3078	343.819072070915	11
0	3080	343.953207355822	12
0	3081	344.096229177874	11
0	3083	344.096229177874	10
0	3086	344.299438125537	11
0	3087	344.748888819694	10
0	3089	344.748888819694	9
0	3090	344.748888819694	8
0	3093	345.32903652306	9
0	3095	345.33547333771	10
0	3096	345.401548461514	9
0	3098	345.401548461514	8
0	3099	345.401548461514	7
0	3100	345.401548461514	6
0	3101	345.401548461514	5
0	3104	345.480548131622	6
0	3105	346.054208103334	5
0	3107	346.054208103334	4
0	3108	346.054208103334	3
0	3111	346.529931112577	4
0	3112	346.706867745154	3
0	3116	346.909797602238	4
0	3118	347.114601722166	5
0	3119	347.359527386974	4
0	3125	348.02843255289	5
0	3126	348.302457616829	4
0	3127	348.302457616829	3
0	3130	348.316041565733	4
0	3132	348.825642333373	5
0	3133	348.955117258649	4
0	3137	349.010854942906	5
0	3138	349.607776900469	4
0	3140	349.607776900469	3
0	3143	349.631888568199	4
0	3145	350.187417007385	5
0	3146	350.260436542289	4
0	3150	350.441068920063	5
0	3151	350.913096184109	4
0	3153	350.913096184109	3
0	3156	351.344635985519	4
0	3157	351.565755825929	3
0	3161	352.068527960165	4
0	3162	352.218415467749	3
0	3166	352.705893151092	4
0	3167	352.871075109569	3
0	3169	352.871075109569	2
0	3172	352.988022624772	3
0	3174	353.394840595854	4
0	3175	353.523734751389	3
0	3178	354.176394393209	2
0	3181	354.829054035029	1
0	3185	355.036725576289	2
0	3186	355.481713676849	1
0	3188	355.481713676849	0
0	3191	355.563057568052	1
0	3193	355.696242543866	2
0	3194	356.134373318669	1
0	3197	356.787032960489	0
0	3201	356.982403794884	1
0	3202	357.439692602309	0
0	3206	357.841862408173	1
0	3208	357.991598958334	2
0	3209	358.092352244129	1
0	3213	358.231188444486	2
0	3215	358.294739299244	3
0	3216	358.745011885949	2
0	3220	358.791746844956	3
0	3222	359.045848096823	4
0	3223	359.397671527769	3
0	3226	360.050331169589	2
0	3230	360.100713414939	3
0	3231	360.702990811409	2
0	3235	361.136286110022	3
0	3236	361.355650453229	2
0	3238	361.355650453229	1
0	3241	361.492832571722	2
0	3243	361.786734855334	3
0	3245	361.855013411236	4
0	3246	362.008310095049	3
0	3249	362.660969736869	2
0	3252	363.313629378689	1
0	3256	363.343871572456	2
0	3258	363.398465737246	3
0	3260	363.413823019065	4
0	3262	363.623494944847	5
0	3264	363.761155810645	6
0	3265	363.966289020509	5
0	3267	363.966289020509	4
0	3270	364.151004806574	5
0	3271	364.618948662329	4
0	3275	365.134368071156	5
0	3276	365.271608304149	4
0	3280	365.342429824503	5
0	3281	365.924267945969	4
0	3283	365.924267945969	3
0	3284	365.924267945969	2
0	3286	366.576927587789	1
0	3290	366.605710591657	2
0	3292	367.120555255589	3
0	3293	367.229587229609	2
0	3297	367.722670953217	3
0	3299	367.806656272997	4
0	3301	367.851582309753	5
0	3304	368.172517459464	4
0	3307	368.528892882405	5
0	3308	368.825177101284	4
0	3312	368.929947032024	5
0	3314	369.12960798868	6
0	3315	369.477836743104	5
0	3319	369.824037013492	6
0	3320	370.130496384924	5
0	3322	370.130496384924	4
0	3323	370.130496384924	3
0	3326	370.27120270329	4
0	3328	370.578008741469	5
0	3329	370.783156026744	4
0	3333	371.090818707097	5
0	3334	371.435815668564	4
0	3336	371.435815668564	3
0	3339	371.830941870381	4
0	3341	372.009931108229	5
0	3342	372.088475310384	4
0	3346	372.221533386696	5
0	3348	372.418896655854	6
0	3349	372.741134952204	5
0	3351	372.741134952204	4
0	3353	373.393794594024	3
0	3357	373.859554819093	4
0	3359	373.910800870265	5
0	3360	374.046454235844	4
0	3364	374.092833216669	5
0	3366	374.329275480315	6
0	3368	374.669374262105	7
0	3369	374.699113877664	6
0	3371	374.699113877664	5
0	3372	374.699113877664	4
0	3375	375.000375801122	5
0	3376	375.351773519484	4
0	3380	375.742454218864	5
0	3382	375.902273336542	6
0	3383	376.004433161304	5
0	3387	376.536516285434	6
0	3388	376.657092803124	5
0	3390	376.657092803124	4
0	3393	377.191073922257	5
0	3394	377.309752444944	4
0	3396	377.309752444944	3
0	3399	377.333764933436	4
0	3401	377.724434585215	5
0	3403	377.876179262202	6
0	3404	377.962412086764	5
0	3406	377.962412086764	4
0	3409	378.241546466848	5
0	3410	378.615071728584	4
0	3414	378.862074519953	5
0	3416	378.986645224482	6
0	3417	379.267731370404	5
0	3421	379.343417772009	6
0	3423	379.525324313033	7
0	3425	379.731284792135	8
0	3427	379.795106194742	9
0	3428	379.920391012224	8
0	3430	379.920391012224	7
0	3432	380.573050654044	6
0	3434	380.573050654044	5
0	3436	381.225710295864	4
0	3438	381.225710295864	3
0	3440	381.878369937684	2
0	3442	381.878369937684	1
0	3443	381.878369937684	0
0	3449	382.47263098752	1
0	3450	383.041464380535	0
0	3459	384.349368052221	1
0	3460	384.925745076247	0
0	3464	385.090773651413	1
0	3465	385.578404718067	0
0	3469	385.855323136592	1
0	3471	385.861195643475	2
0	3472	386.231064359887	1
0	3476	386.440769989377	2
0	3478	386.650575965714	3
0	3479	386.883724001707	2
0	3483	387.038308813162	3
0	3484	387.536383643527	2
0	3488	387.722080413811	3
0	3490	388.151184365698	4
0	3491	388.189043285347	3
0	3495	388.393414091228	4
0	3498	389.131973515202	3
0	3499	389.131973515202	2
0	3501	389.784633157022	1
0	3505	390.000665447391	2
0	3507	390.006963929323	3
0	3508	390.437292798842	2
0	3512	390.521479589303	3
0	3513	391.089952440662	2
0	3517	391.171807711155	3
0	3519	391.674691871533	4
0	3520	391.742612082482	3
0	3523	392.395271724302	2
0	3527	392.969018283449	3
0	3528	393.047931366122	2
0	3532	393.638976365283	3
0	3533	393.700591007942	2
0	3537	394.353242222636	3
0	3538	394.353250649762	2
0	3541	395.005910291582	1
0	3545	395.092307933584	2
0	3547	395.154825353958	3
0	3549	395.525149073059	4
0	3550	395.658569933402	3
0	3553	396.311229575222	2
0	3557	396.769090620482	3
0	3558	396.963889217042	2
0	3562	397.401733512177	3
0	3563	397.616548858862	2
0	3565	397.616548858862	1
0	3567	398.269208500682	0
0	3571	398.618140349005	1
0	3573	398.894620326415	2
0	3574	398.921868142502	1
0	3578	399.368336304875	2
0	3580	399.563821669934	3
0	3581	399.574527784322	2
0	3585	399.703194376877	3
0	3587	400.193648483705	4
0	3589	400.195817223598	5
0	3590	400.227187426142	4
0	3594	400.378953602156	5
0	3595	400.879847067962	4
0	3598	401.532506709782	3
0	3601	402.185166351602	2
0	3604	402.837825993422	1
0	3606	402.837825993422	0
0	3622	404.784218073172	1
0	3624	404.975212166464	2
0	3626	404.985372903669	3
0	3627	405.075315931687	2
0	3631	405.111120432907	3
0	3633	405.22628530561	4
0	3634	405.727975573507	3
0	3637	406.380635215327	2
0	3640	407.033294857147	1
0	3644	407.310315491624	2
0	3646	407.521057799114	3
0	3647	407.685954498967	2
0	3649	407.685954498967	1
0	3651	408.338614140787	0
0	3657	409.228903887184	1
0	3658	409.281544370642	0
0	3666	410.248390457194	1
0	3667	410.843150152885	0
0	3671	410.902969738272	1
0	3672	411.495809794705	0
0	3676	412.086810093329	1
0	3677	412.148469436525	0
0	3686	413.088803587914	1
0	3687	413.564125859611	0
0	3696	415.069986927	1
0	3697	415.072204703479	0
0	3701	415.592520898088	1
0	3702	415.724864345299	0
0	3706	415.954642346022	1
0	3707	416.377523987119	0
0	3711	416.612514882542	1
0	3712	417.030183628939	0
0	3721	417.948695231944	1
0	3723	418.097234671763	2
0	3725	418.131045912828	3
0	3727	418.136541455803	4
0	3728	418.426333527459	3
0	3732	418.783474952964	4
0	3734	418.839969701578	5
0	3735	419.078993169279	4
0	3739	419.33543770636	5
0	3740	419.731652811099	4
0	3744	420.27963066814	5
0	3746	420.296184540618	6
0	3747	420.384312452919	5
0	3749	420.384312452919	4
0	3751	421.036972094739	3
0	3753	421.036972094739	2
0	3756	421.377045319446	3
0	3758	421.430812651089	4
0	3759	421.689631736559	3
0	3763	422.013761754132	4
0	3765	422.12618314299	5
0	3766	422.342291378379	4
0	3769	422.994951020199	3
0	3773	423.372238282821	4
0	3775	423.427765583406	5
0	3776	423.647610662019	4
0	3778	423.647610662019	3
0	3780	424.300270303839	2
0	3782	424.300270303839	1
0	3785	424.309474803589	2
0	3787	424.851225393859	3
0	3788	424.952929945659	2
0	3791	425.605589587479	1
0	3795	425.87177237655	2
0	3796	426.258249229299	1
0	3800	426.333025691942	2
0	3802	426.364273265058	3
0	3804	426.448461342167	4
0	3806	426.449713618695	5
0	3807	426.910908871119	4
0	3811	427.195918103699	5
0	3813	427.352986719157	6
0	3814	427.563568512939	5
0	3817	428.216228154759	4
0	3821	428.283321276461	5
0	3822	428.868887796579	4
0	3824	428.868887796579	3
0	3825	428.868887796579	2
0	3828	428.914931817196	3
0	3830	428.977073250057	4
0	3832	429.419511430307	5
0	3836	429.695716461709	6
0	3837	429.811818026434	5
0	3838	429.811818026434	4
0	3841	430.20447555181	5
0	3843	430.314433192718	6
0	3844	430.464477668254	5
0	3848	430.478131645018	6
0	3849	431.117137310074	5
0	3851	431.117137310074	4
0	3854	431.61122232084	5
0	3855	431.769796951894	4
0	3857	431.769796951894	3
0	3860	432.108117611251	4
0	3862	432.112256670463	5
0	3864	432.392622437583	6
0	3865	432.422456593714	5
0	3867	432.422456593714	4
0	3870	432.43650026745	5
0	3872	432.721389277508	6
0	3874	432.745644214513	7
0	3875	433.075116235534	6
0	3878	433.727775877354	5
0	3882	434.213670272058	6
0	3883	434.380435519174	5
0	3885	434.380435519174	4
0	3888	434.406986672072	5
0	3890	434.527793654211	6
0	3891	435.033095160994	5
0	3893	435.033095160994	4
0	3894	435.033095160994	3
0	3895	435.033095160994	2
0	3898	435.372032976432	3
0	3899	435.685754802814	2
0	3902	436.338414444634	1
0	3906	436.54806471455	2
0	3908	436.668138070737	3
0	3909	436.991074086454	2
0	3913	437.238403930148	3
0	3915	437.376936272313	4
0	3916	437.643733728274	3
0	3920	437.772687478735	4
0	3921	438.296393370094	3
0	3925	438.82967495043	4
0	3926	438.949053011914	3
0	3930	439.120303291755	4
0	3932	439.274975632632	5
0	3933	439.601712653734	4
0	3935	439.601712653734	3
0	3938	439.890438148528	4
0	3940	439.895109796529	5
0	3942	440.029488527151	6
0	3943	440.254372295554	5
0	3947	440.803771571321	6
0	3948	440.907031937374	5
0	3952	441.514072769412	6
0	3953	441.559691579194	5
0	3955	441.559691579194	4
0	3958	441.80936558929	5
0	3959	442.212351221014	4
0	3961	442.212351221014	3
0	3962	442.212351221014	2
0	3965	442.220237651758	3
0	3967	442.568317375063	4
0	3968	442.865010862834	3
0	3972	443.052398748198	4
0	3974	443.31975167879	5
0	3975	443.517670504654	4
0	3978	444.170330146474	3
0	3982	444.426216898402	4
0	3984	444.732941188966	5
0	3985	444.822989788294	4
0	3987	444.822989788294	3
0	3990	445.040574970402	4
0	3992	445.112148589794	5
0	3994	445.447961553286	6
0	3995	445.475649430114	5
0	3997	445.475649430114	4
0	4000	445.608855056461	5
0	4002	445.818368726753	6
0	4004	446.112369621743	7
0	4005	446.128309071934	6
0	4009	446.131541011217	7
0	4011	446.138696440862	8
0	4012	446.780968713754	7
0	4016	446.856834210326	8
0	4018	446.863779585013	9
0	4020	447.245786501983	10
0	4022	447.261330893187	11
0	4023	447.433628355574	10
0	4025	447.433628355574	9
0	4027	448.086287997394	8
0	4029	448.086287997394	7
0	4030	448.086287997394	6
0	4033	448.543975067591	7
0	4035	448.626331057872	8
0	4036	448.738947639214	7
0	4038	448.738947639214	6
0	4039	448.738947639214	5
0	4044	449.432821623569	6
0	4045	449.681877869069	5
0	4046	449.681877869069	4
0	4047	449.681877869069	3
0	4048	449.681877869069	2
0	4051	449.994371611612	3
0	4052	450.334537510889	2
0	4056	450.37362722831	3
0	4058	450.709196355664	4
0	4060	450.74457708363	5
0	4061	450.987197152709	4
0	4064	451.639856794529	3
0	4067	452.292516436349	2
0	4070	452.945176078169	1
0	4072	452.945176078169	0
0	4078	454.034766904952	1
0	4080	454.15076461409	2
0	4081	454.491241677269	1
0	4085	454.561881764642	2
0	4087	454.628145352965	3
0	4089	454.821965726666	4
0	4090	455.143901319089	3
0	4093	455.796560960909	2
0	4096	456.449220602729	1
0	4100	456.623236995891	2
0	4101	457.101880244549	1
0	4103	457.101880244549	0
0	4106	457.361303076396	1
0	4108	457.42041714825	2
0	4109	457.754539886369	1
0	4113	458.264852529647	2
0	4114	458.407199528189	1
0	4118	458.990172475201	2
0	4119	459.059859170009	1
0	4123	459.128698152143	2
0	4125	459.301201518684	3
0	4127	459.488308335887	4
0	4128	459.712518811829	3
0	4132	459.776023583977	4
0	4134	460.017116288492	5
0	4136	460.140036245311	6
0	4137	460.365178453649	5
0	4141	460.816113239263	6
0	4142	461.017838095469	5
0	4146	461.027758141287	6
0	4148	461.612994121575	7
0	4149	461.670497737289	6
0	4151	461.670497737289	5
0	4153	462.323157379109	4
0	4155	462.323157379109	3
0	4156	462.323157379109	2
0	4159	462.335140840139	3
0	4161	462.686047574342	4
0	4163	462.882824074475	5
0	4164	462.975817020929	4
0	4168	463.125714331461	5
0	4170	463.131576640719	6
0	4172	463.365249065459	7
0	4173	463.628476662749	6
0	4177	463.930778668157	7
0	4178	464.281136304569	6
0	4182	464.602870786018	7
0	4183	464.933795946389	6
0	4185	464.933795946389	5
0	4188	465.3008101586	6
0	4190	465.562541217873	7
0	4191	465.586455588209	6
0	4193	465.586455588209	5
0	4194	465.586455588209	4
0	4195	465.586455588209	3
0	4198	465.830924081567	4
0	4199	466.239115230029	3
0	4202	466.891774871849	2
0	4206	466.945847536521	3
0	4207	467.544434513669	2
0	4210	468.197094155489	1
0	4212	468.197094155489	0
0	4215	468.262619127042	1
0	4217	468.322556853092	2
0	4218	468.849753797309	1
0	4222	468.951624911991	2
0	4224	469.146711241719	3
0	4226	469.254338883124	4
0	4227	469.502413439129	3
0	4233	470.306650515096	4
0	4234	470.445343668984	3
0	4236	471.098003310804	2
0	4240	471.614185980695	3
0	4241	471.750662952624	2
0	4243	471.750662952624	1
0	4245	472.403322594444	0
0	4249	472.503076520803	1
0	4250	473.055982236264	0
0	4254	473.217075253031	1
0	4256	473.595168547501	2
0	4257	473.708641878084	1
0	4261	473.972820949748	2
0	4263	474.046051530101	3
0	4265	474.090932773489	4
0	4267	474.137621183157	5
0	4268	474.361301519904	4
0	4272	474.664676119115	5
0	4273	475.013961161724	4
0	4277	475.269842909656	5
0	4279	475.47575421381	6
0	4280	475.666620803544	5
0	4284	475.908088675617	6
0	4286	475.933187340028	7
0	4288	476.134394125533	8
0	4289	476.319280445364	7
0	4291	476.319280445364	6
0	4292	476.319280445364	5
0	4295	476.786597706613	6
0	4296	476.971940087184	5
0	4300	477.024762790708	6
0	4301	477.624599729004	5
0	4303	477.624599729004	4
0	4306	477.661367438774	5
0	4308	477.733441017174	6
0	4310	478.240045961379	7
0	4311	478.277259370824	6
0	4313	478.277259370824	5
0	4314	478.277259370824	4
0	4317	478.473136857689	5
0	4319	478.492711394014	6
0	4320	478.929919012644	5
0	4324	479.220921662928	6
0	4325	479.582578654464	5
0	4328	480.235238296284	4
0	4330	480.235238296284	3
0	4333	480.49412531919	4
0	4335	480.803842515906	5
0	4336	480.887897938104	4
0	4338	480.887897938104	3
0	4339	480.887897938104	2
0	4342	480.956840557298	3
0	4343	481.540557579924	2
0	4347	481.712764326231	3
0	4349	482.026346452434	4
0	4350	482.193217221744	3
0	4353	482.845876863564	2
0	4357	482.998954290552	3
0	4359	483.34787883542	4
0	4361	483.418199327767	5
0	4362	483.498536505384	4
0	4365	484.151196147204	3
0	4367	484.151196147204	2
0	4370	484.645230805809	3
0	4371	484.803855789024	2
0	4375	485.030630329074	3
0	4376	485.456515430844	2
0	4380	485.87327928792	3
0	4382	485.986910897641	4
0	4384	486.080551611797	5
0	4385	486.109175072664	4
0	4389	486.326346601993	5
0	4390	486.761834714484	4
0	4394	487.265409790004	5
0	4395	487.414494356304	4
0	4399	487.558910037765	5
0	4400	488.067153998124	4
0	4402	488.067153998124	3
0	4405	488.166595023588	4
0	4407	488.313123673336	5
0	4409	488.448999562708	6
0	4410	488.719813639944	5
0	4412	488.719813639944	4
0	4414	489.372473281764	3
0	4418	489.752251152794	4
0	4422	490.121628858551	5
0	4423	490.315403511619	4
0	4424	490.315403511619	3
0	4427	490.721681023028	4
0	4429	490.936341351033	5
0	4430	490.968063153439	4
0	4432	490.968063153439	3
0	4435	491.523020332395	4
0	4436	491.620722795259	3
0	4440	491.848653808125	4
0	4442	492.043504910039	5
0	4444	492.234006531468	6
0	4446	492.235244447841	7
0	4447	492.273382437079	6
0	4451	492.472232253473	7
0	4452	492.926042078899	6
0	4455	493.578701720719	5
0	4457	493.578701720719	4
0	4460	493.635425718182	5
0	4462	493.97605567332	6
0	4463	494.231361362539	5
0	4465	494.231361362539	4
0	4468	494.307189737881	5
0	4470	494.674471771371	6
0	4471	494.884021004359	5
0	4473	494.884021004359	4
0	4474	494.884021004359	3
0	4476	495.536680646179	2
0	4480	495.998584783032	3
0	4481	496.189340287999	2
0	4485	496.306860404128	3
0	4487	496.51792396477	4
0	4489	496.796030705078	5
0	4490	496.841999929819	4
0	4492	496.841999929819	3
0	4495	497.061904621599	4
0	4497	497.425485270001	5
0	4498	497.494659571639	4
0	4502	498.00915241	5
0	4503	498.147319213459	4
0	4507	498.21313162431	5
0	4509	498.238330200821	6
0	4511	498.483059109702	7
0	4513	498.776850283523	8
0	4514	498.799978855279	7
0	4518	499.267736843839	8
0	4519	499.452638497099	7
0	4521	499.452638497099	6
0	4524	499.781905574221	7
0	4526	499.968496015649	8
0	4527	500.105298138919	7
0	4529	500.105298138919	6
0	4532	500.208752782382	7
0	4533	500.757957780739	6
0	4535	500.757957780739	5
0	4536	500.757957780739	4
0	4539	501.034456531599	5
0	4541	501.192495965399	6
0	4542	501.410617422559	5
0	4544	501.410617422559	4
0	4546	502.063277064379	3
0	4548	502.063277064379	2
0	4551	502.345593962492	3
0	4553	502.408438777909	4
0	4554	502.715936706199	3
0	4558	503.114037900184	4
0	4560	503.233554430289	5
0	4561	503.368596348019	4
0	4563	503.368596348019	3
0	4566	503.527841385384	4
0	4568	503.661732849131	5
0	4569	504.021255989839	4
0	4573	504.439180305099	5
0	4574	504.673915631659	4
0	4578	504.927334507946	5
0	4579	505.326575273479	4
0	4581	505.326575273479	3
0	4584	505.969308287034	4
0	4585	505.979234915299	3
0	4587	505.979234915299	2
0	4590	506.031441446597	3
0	4592	506.117413168651	4
0	4594	506.126173307404	5
0	4596	506.296617085358	6
0	4598	506.347816540987	7
0	4600	506.464937710025	8
0	4601	506.631894557119	7
0	4605	506.904461633811	8
0	4607	507.128443706628	9
0	4608	507.284554198939	8
0	4612	507.67620147391	9
0	4613	507.937213840759	8
0	4617	508.167780520672	9
0	4618	508.589873482579	8
0	4620	508.589873482579	7
0	4621	508.589873482579	6
0	4622	508.589873482579	5
0	4623	508.589873482579	4
0	4624	508.589873482579	3
0	4626	509.242533124399	2
0	4628	509.242533124399	1
0	4631	509.451067356442	2
0	4634	510.185463354254	1
0	4637	510.2224255001	2
0	4638	510.838122996074	1
0	4642	510.993276855395	2
0	4644	511.490524363641	3
0	4645	511.490782637894	2
0	4649	511.774465557016	3
0	4650	512.143442279714	2
0	4654	512.757782194112	3
0	4655	512.796101921534	2
0	4659	513.338989748324	3
0	4660	513.448761563354	2
0	4664	513.826712509364	3
0	4666	513.919903988812	4
0	4668	514.086627568208	5
0	4669	514.101421205174	4
0	4673	514.554505083186	5
0	4674	514.754080846994	4
0	4678	514.855431070317	5
0	4680	515.403688427637	6
0	4681	515.406740488814	5
0	4684	516.059400130634	4
0	4686	516.059400130634	3
0	4689	516.660543260969	4
0	4690	516.712059772454	3
0	4692	516.712059772454	2
0	4695	516.810435939998	3
0	4696	517.364719414274	2
0	4700	517.917048065273	3
0	4702	518.009587338499	4
0	4703	518.017379056094	3
0	4706	518.670038697914	2
0	4709	519.322698339734	1
0	4712	519.975357981554	0
0	4721	520.734905804735	1
0	4722	521.316798206585	0
0	4726	521.788052636255	1
0	4728	521.931261580606	2
0	4729	521.969457848405	1
0	4732	522.622117490225	0
0	4751	525.717045361824	1
0	4753	525.772151024085	2
0	4755	526.060437355912	3
0	4756	526.067926513413	2
0	4759	526.720586155233	1
0	4763	526.872801527217	2
0	4765	527.201680231245	3
0	4766	527.373245797053	2
0	4769	528.025905438873	1
0	4773	528.278413009628	2
0	4775	528.626708226446	3
0	4777	528.662452880347	4
0	4779	528.667785205537	5
0	4780	528.678565080693	4
0	4783	529.331224722513	3
0	4787	529.34193711864	4
0	4788	529.983884364333	3
0	4793	530.926814594188	2
0	4794	530.926814594188	1
0	4795	530.926814594188	0
0	4798	531.351600748409	1
0	4800	531.385828739083	2
0	4801	531.579474236008	1
0	4805	531.999195190409	2
0	4807	532.13675140575	3
0	4808	532.232133877828	2
0	4812	532.86876669038	3
0	4813	532.884793519648	2
0	4816	533.537453161468	1
0	4820	534.114969540924	2
0	4821	534.190112803288	1
0	4825	534.358765641922	2
0	4827	534.382752472914	3
0	4828	534.842772445108	2
0	4831	535.495432086928	1
0	4835	535.569922033158	2
0	4837	535.793887424179	3
0	4839	536.055477378827	4
0	4840	536.148091728748	3
0	4843	536.800751370568	2
0	4847	537.121060723463	3
0	4849	537.333598311106	4
0	4850	537.453411012388	3
0	4853	538.106070654208	2
0	4857	538.310896031851	3
0	4858	538.758730296028	2
0	4862	538.98976812024	3
0	4863	539.411389937848	2
0	4865	539.411389937848	1
0	4868	539.818310922941	2
0	4869	540.064049579668	1
0	4873	540.269987013869	2
0	4875	540.274155310642	3
0	4877	540.713449248355	4
0	4878	540.716709221488	3
0	4882	540.890488640072	4
0	4884	541.109069354097	5
0	4886	541.280034632851	6
0	4887	541.369368863308	5
0	4891	541.729830189062	6
0	4892	542.022028505128	5
0	4896	542.066090860917	6
0	4897	542.674688146948	5
0	4901	542.934150178548	6
0	4903	543.121891586041	7
0	4905	543.183578186576	8
0	4906	543.327347788768	7
0	4908	543.327347788768	6
0	4909	543.327347788768	5
0	4912	543.956759767491	6
0	4913	543.980007430588	5
0	4915	543.980007430588	4
0	4917	544.632667072408	3
0	4921	544.720515960689	4
0	4922	545.285326714228	3
0	4924	545.285326714228	2
0	4925	545.285326714228	1
0	4927	545.937986356048	0
0	4931	546.299439443292	1
0	4932	546.590645997868	0
0	4936	546.807523027367	1
0	4937	547.243305639688	0
0	4941	547.740391462918	1
0	4942	547.895965281508	0
0	4946	548.044911875577	1
0	4948	548.380833241522	2
0	4949	548.548624923328	1
0	4953	548.574225633897	2
0	4955	548.993820252309	3
0	4956	549.201284565148	2
0	4959	549.853944206968	1
0	4965	550.52995416066	2
0	4966	550.796874436823	1
0	4969	550.953862991218	2
0	4970	551.449534078643	1
0	4974	551.467108652533	2
0	4975	552.102193720463	1
0	4979	552.315138494641	2
0	4981	552.344101288163	3
0	4983	552.69913113221	4
0	4984	552.754853362283	3
0	4988	552.903539627114	4
0	4990	553.210391361195	5
0	4992	553.256297271723	6
0	4993	553.407513004103	5
0	4997	553.643042617407	6
0	4998	554.060172645923	5
0	5002	554.469323544316	6
0	5004	554.633764383658	7
0	5005	554.712832287743	6
0	5009	555.309014266491	7
0	5010	555.365491929563	6
0	5012	555.365491929563	5
0	5013	555.365491929563	4
0	5014	555.365491929563	3
0	5017	555.419156618184	4
0	5019	555.525217476324	5
0	5020	556.018151571383	4
0	5024	556.148838371075	5
0	5026	556.565092241599	6
0	5027	556.670811213203	5
0	5031	556.917324430119	6
0	5033	557.147293817247	7
0	5035	557.268957314485	8
0	5036	557.323470855023	7
0	5040	557.487600665042	8
0	5041	557.976130496843	7
0	5043	557.976130496843	6
0	5044	557.976130496843	5
0	5046	558.628790138663	4
0	5048	558.628790138663	3
0	5051	558.904186019202	4
0	5053	559.070580133323	5
0	5054	559.281449780483	4
0	5056	559.281449780483	3
0	5059	559.35422072776	4
0	5061	559.637925947322	5
0	5063	559.674669681114	6
0	5064	559.934109422303	5
0	5066	559.934109422303	4
0	5069	560.065699908232	5
0	5071	560.57765019263	6
0	5072	560.586769064123	5
0	5075	561.239428705943	4
0	5078	561.892088347763	3
0	5080	561.892088347763	2
0	5081	561.892088347763	1
0	5084	562.229632295765	2
0	5086	562.314193507303	3
0	5088	562.420576046366	4
0	5089	562.544747989583	3
0	5093	562.847588769155	4
0	5095	563.031721140488	5
0	5097	563.187356148546	6
0	5098	563.197407631403	5
0	5102	563.284959097952	6
0	5104	563.417302295149	7
0	5105	563.850067273223	6
0	5109	563.937290850082	7
0	5111	564.163906186968	8
0	5112	564.502726915043	7
0	5114	564.502726915043	6
0	5116	565.155386556863	5
0	5118	565.155386556863	4
0	5121	565.664638305736	5
0	5122	565.808046198683	4
0	5124	565.808046198683	3
0	5125	565.808046198683	2
0	5128	566.383357181757	3
0	5129	566.460705840503	2
0	5131	566.460705840503	1
0	5134	566.499131545888	2
0	5136	566.511686249993	3
0	5137	567.113365482323	2
0	5141	567.349893938207	3
0	5143	567.353643680964	4
0	5145	567.570939353298	5
0	5146	567.766025124143	4
0	5149	568.418684765963	3
0	5153	568.708619015807	4
0	5155	568.779343457446	5
0	5157	568.866174926757	6
0	5158	569.071344407783	5
0	5162	569.255758729185	6
0	5163	569.724004049603	5
0	5165	569.724004049603	4
0	5166	569.724004049603	3
0	5169	570.03533479366	4
0	5171	570.079392667543	5
0	5174	570.666934279458	4
0	5177	570.676853632017	5
0	5179	570.885179654207	6
0	5180	571.319593921278	5
0	5182	571.319593921278	4
0	5183	571.319593921278	3
0	5186	571.869462626034	4
0	5187	571.972253563098	3
0	5191	572.160582783329	4
0	5193	572.548387288998	5
0	5194	572.624913204918	4
0	5198	572.74854963086	5
0	5200	573.05914843938	6
0	5201	573.277572846738	5
0	5203	573.277572846738	4
0	5206	573.61688534925	5
0	5207	573.930232488558	4
0	5211	574.283218980446	5
0	5213	574.486771988956	6
0	5215	574.543911014976	7
0	5216	574.582892130378	6
0	5220	574.838163479828	7
0	5221	575.235551772198	6
0	5223	575.235551772198	5
0	5224	575.235551772198	4
0	5227	575.564067015336	5
0	5228	575.888211414018	4
0	5232	575.905481354946	5
0	5234	576.441643693084	6
0	5235	576.540871055838	5
0	5237	576.540871055838	4
0	5239	577.193530697658	3
0	5241	577.193530697658	2
0	5244	577.306285453933	3
0	5246	577.733205756721	4
0	5247	577.846190339478	3
0	5251	578.370071882152	4
0	5252	578.498849981298	3
0	5254	578.498849981298	2
0	5257	578.608205785655	3
0	5259	578.857062186542	4
0	5260	579.151509623118	3
0	5263	579.804169264938	2
0	5267	579.991903821769	3
0	5269	580.364181472841	4
0	5270	580.456828906758	3
0	5273	581.109488548578	2
0	5275	581.109488548578	1
0	5278	581.382927968527	2
0	5280	581.383309981126	3
0	5281	581.762148190398	2
0	5285	581.837119076566	3
0	5287	581.911658570323	4
0	5289	582.205259166535	5
0	5290	582.414807832218	4
0	5293	583.067467474038	3
0	5297	583.327957150054	4
0	5298	583.720127115858	3
0	5301	584.372786757678	2
0	5303	584.372786757678	1
0	5304	584.372786757678	0
0	5307	584.508340761222	1
0	5309	584.802186337383	2
0	5311	584.993059221154	3
0	5312	585.025446399498	2
0	5316	585.051999009098	3
0	5318	585.150805447026	4
0	5319	585.678106041318	3
0	5322	586.330765683138	2
0	5325	586.983425324958	1
0	5329	587.33864542942	2
0	5330	587.636084966778	1
0	5332	587.636084966778	0
0	5335	587.793461150719	1
0	5337	588.019801399425	2
0	5338	588.288744608598	1
0	5342	588.540297241383	2
0	5344	588.5776412416	3
0	5346	588.595532689096	4
0	5347	588.941404250418	3
0	5351	589.039425305867	4
0	5353	589.189863263165	5
0	5355	589.265002550782	6
0	5356	589.594063892238	5
0	5360	590.044255157709	6
0	5362	590.164248118093	7
0	5366	590.253009931739	8
0	5367	590.536994122093	7
0	5370	590.61852866129	8
0	5372	590.682676557467	9
0	5373	591.189653763913	8
0	5375	591.189653763913	7
0	5376	591.189653763913	6
0	5379	591.477760044813	7
0	5380	591.842313405733	6
0	5382	591.842313405733	5
0	5385	592.068566509818	6
0	5387	592.123260476487	7
0	5389	592.4136140103	8
0	5390	592.494973047553	7
0	5392	592.494973047553	6
0	5393	592.494973047553	5
0	5396	592.501555942922	6
0	5398	592.601515084405	7
0	5399	593.147632689373	6
0	5401	593.147632689373	5
0	5404	593.466133133799	6
0	5406	593.738190644668	7
0	5407	593.800292331193	6
0	5411	594.126589948343	7
0	5413	594.147618664275	8
0	5415	594.348868141135	9
0	5416	594.452951973013	8
0	5418	594.452951973013	7
0	5421	594.528842035778	8
0	5422	595.105611614833	7
0	5424	595.105611614833	6
0	5425	595.105611614833	5
0	5428	595.741886928791	6
0	5429	595.758271256653	5
0	5433	596.137909420831	6
0	5434	596.410930898473	5
0	5436	596.410930898473	4
0	5437	596.410930898473	3
0	5438	596.410930898473	2
0	5441	596.762785825692	3
0	5443	596.925720105519	4
0	5444	597.063590540293	3
0	5448	597.220104357228	4
0	5449	597.716250182113	3
0	5453	597.735776844234	4
0	5455	597.914290969273	5
0	5456	598.368909823933	4
0	5460	598.453111606908	5
0	5462	598.930364672799	6
0	5463	599.021569465753	5
0	5465	599.021569465753	4
0	5468	599.611860594224	5
0	5469	599.674229107573	4
0	5473	599.802782917704	5
0	5474	600.326888749393	4
0	5476	600.326888749393	3
0	5479	600.42740448209	4
0	5480	600.979548391213	3
0	5484	601.125737509893	4
0	5485	601.632208033033	3
0	5489	601.784240315331	4
0	5491	602.061867731767	5
0	5492	602.284867674853	4
0	5494	602.284867674853	3
0	5497	602.44449600895	4
0	5499	602.698801195659	5
0	5500	602.937527316673	4
0	5504	603.003947008033	5
0	5506	603.164549592149	6
0	5508	603.395271120783	7
0	5510	603.536012110118	8
0	5511	603.590186958493	7
0	5514	604.242846600313	6
0	5516	604.242846600313	5
0	5519	604.426706801979	6
0	5520	604.895506242133	5
0	5522	604.895506242133	4
0	5524	605.548165883953	3
0	5526	605.548165883953	2
0	5527	605.548165883953	1
0	5530	605.764386637493	2
0	5531	606.200825525773	1
0	5535	606.254110570162	2
0	5536	606.853485167593	1
0	5540	607.194532820923	2
0	5541	607.506144809413	1
0	5545	607.622216027734	2
0	5546	608.158804451233	1
0	5550	608.709104522924	2
0	5551	608.811464093053	1
0	5555	608.953815214664	2
0	5557	609.248052795573	3
0	5558	609.464123734873	2
0	5562	609.869442611292	3
0	5565	610.407053964728	2
0	5568	610.866741600762	3
0	5570	610.927268161748	4
0	5571	611.059713606548	3
0	5575	611.504314747722	4
0	5576	611.712373248368	3
0	5580	611.818856074176	4
0	5581	612.365032890188	3
0	5584	613.017692532008	2
0	5586	613.017692532008	1
0	5589	613.43577461679	2
0	5591	613.508052184592	3
0	5592	613.670352173828	2
0	5596	613.940474722907	3
0	5597	614.323011815648	2
0	5601	614.512208657081	3
0	5602	614.975671457468	2
0	5606	615.229589278339	3
0	5607	615.628331099288	2
0	5611	616.108839191093	3
0	5613	616.227731115441	4
0	5614	616.280990741108	3
0	5618	616.577803265694	4
0	5620	616.840430664719	5
0	5621	616.933650382928	4
0	5625	616.958549090461	5
0	5627	617.278376359003	6
0	5628	617.586310024748	5
0	5632	617.971552376935	6
0	5634	618.168080669893	7
0	5635	618.238969666568	6
0	5639	618.810202116911	7
0	5640	618.891629308388	6
0	5642	618.891629308388	5
0	5645	619.048136288746	6
0	5647	619.392894317935	7
0	5648	619.544288950208	6
0	5650	619.544288950208	5
0	5651	619.544288950208	4
0	5654	619.75901264958	5
0	5656	620.149743492303	6
0	5657	620.196948592028	5
0	5660	620.849608233848	4
0	5664	620.960524549534	5
0	5666	621.083400576816	6
0	5668	621.312372970441	7
0	5670	621.484627780272	8
0	5671	621.502267875668	7
0	5673	621.502267875668	6
0	5674	621.502267875668	5
0	5677	621.671987244124	6
0	5678	622.154927517488	5
0	5681	622.807587159308	4
0	5685	623.254100215225	5
0	5687	623.439569650445	6
0	5688	623.460246801128	5
0	5690	623.460246801128	4
0	5691	623.460246801128	3
0	5694	623.938907591074	4
0	5695	624.112906442948	3
0	5697	624.112906442948	2
0	5700	624.228497687101	3
0	5702	624.251420105524	4
0	5704	624.383592268727	5
0	5705	624.765566084768	4
0	5709	625.004692479173	5
0	5711	625.318535907682	6
0	5712	625.418225726588	5
0	5716	625.854411983737	6
0	5718	625.889858230938	7
0	5719	626.070885368408	6
0	5723	626.527030746219	7
0	5724	626.723545010228	6
0	5726	626.723545010228	5
0	5727	626.723545010228	4
0	5729	627.376204652048	3
0	5731	627.376204652048	2
0	5734	627.404307193809	3
0	5736	627.494086333729	4
0	5737	628.028864293868	3
0	5739	628.028864293868	2
0	5742	628.105804192398	3
0	5744	628.235280721326	4
0	5745	628.681523935688	3
0	5749	629.107036785544	4
0	5750	629.334183577508	3
0	5754	629.96033606606	4
0	5756	629.961621601644	5
0	5759	630.277113807363	4
0	5760	630.277113807363	3
0	5763	630.285520820022	4
0	5765	630.598573325529	5
0	5766	630.929773449183	4
0	5770	631.348205300534	5
0	5772	631.413152371087	6
0	5773	631.582433091003	5
0	5777	631.943639416333	6
0	5778	632.235092732823	5
0	5780	632.235092732823	4
0	5783	632.39386321759	5
0	5785	632.664227830486	6
0	5786	632.887752374643	5
0	5788	632.887752374643	4
0	5791	633.063529587658	5
0	5793	633.22078883324	6
0	5794	633.540412016463	5
0	5796	633.540412016463	4
0	5799	633.848488157273	5
0	5800	634.193071658283	4
0	5804	634.625976237863	5
0	5805	634.845731300103	4
0	5807	634.845731300103	3
0	5810	634.971861863584	4
0	5812	635.023414510413	5
0	5814	635.119868245745	6
0	5816	635.339292221741	7
0	5817	635.498390941923	6
0	5819	635.498390941923	5
0	5822	635.990312124266	6
0	5823	636.151050583743	5
0	5827	636.662561288333	6
0	5828	636.803710225563	5
0	5832	637.008608900366	6
0	5833	637.456369867383	5
0	5835	637.456369867383	4
0	5836	637.456369867383	3
0	5837	637.456369867383	2
0	5840	637.827569328647	3
0	5841	638.109029509203	2
0	5844	638.761689151023	1
0	5848	639.220645680068	2
0	5850	639.333838486111	3
0	5852	639.388750641651	4
0	5853	639.414348792843	3
0	5857	639.52608723756	4
0	5858	640.067008434663	3
0	5861	640.719668076483	2
0	5865	640.974734913876	3
0	5867	641.191893144679	4
0	5868	641.372327718303	3
0	5872	641.849132819652	4
0	5874	641.887414235074	5
0	5876	641.98083876886	6
0	5877	642.024987360123	5
0	5879	642.024987360123	4
0	5882	642.048755419025	5
0	5884	642.064920062164	6
0	5886	642.150301145853	7
0	5888	642.188341511739	8
0	5889	642.677647001943	7
0	5893	642.68393179092	8
0	5895	642.819071516791	9
0	5897	642.836197379987	10
0	5899	643.171202893255	11
0	5901	643.299238141032	12
0	5902	643.330306643763	11
0	5905	643.982966285583	10
0	5907	643.982966285583	9
0	5910	644.380402155203	10
0	5911	644.635625927403	9
0	5913	644.635625927403	8
0	5914	644.635625927403	7
0	5915	644.635625927403	6
0	5916	644.635625927403	5
0	5919	644.865257970579	6
0	5921	644.996741531396	7
0	5922	645.288285569223	6
0	5924	645.288285569223	5
0	5925	645.288285569223	4
0	5926	645.288285569223	3
0	5928	645.940945211043	2
0	5932	646.043377142428	3
0	5933	646.593604852863	2
0	5937	646.890127318966	3
0	5939	647.238877472877	4
0	5940	647.246264494683	3
0	5942	647.246264494683	2
0	5945	647.458523307438	3
0	5947	647.503152081934	4
0	5948	647.898924136503	3
0	5952	647.989881642884	4
0	5953	648.551583778323	3
0	5957	649.162601832132	4
0	5958	649.204243420143	3
0	5962	649.377838490255	4
0	5966	649.909995576911	5
0	5967	650.147173649998	4
0	5968	650.147173649998	3
0	5969	650.147173649998	2
0	5971	650.799833291818	1
0	5975	651.00413772757	2
0	5976	651.452492933638	1
0	5980	651.624512935986	2
0	5981	652.105152575458	1
0	5985	652.424996364938	2
0	5987	652.511683158161	3
0	5988	652.757812217278	2
0	5991	653.410471859098	1
0	5994	654.063131500918	0
0	5998	654.098119008353	1
0	5999	654.715791142738	0
0	6003	655.082085328271	1
0	6004	655.368450784558	0
0	6008	655.786131557361	1
0	6009	656.021110426378	0
0	6013	656.305174022215	1
0	6014	656.673770068198	0
0	6018	656.975799446963	1
0	6019	657.326429710018	0
0	6028	658.660553483131	1
0	6030	659.174867685056	2
0	6031	659.272188692021	1
0	6035	659.462831046156	2
0	6036	659.924848333841	1
0	6040	660.254677324909	2
0	6041	660.577507975661	1
0	6044	661.230167617481	0
0	6048	661.443218724444	1
0	6050	661.461663990379	2
0	6052	661.633425245963	3
0	6053	661.882827259301	2
0	6057	662.156645640385	3
0	6058	662.535486901121	2
0	6062	662.626335480221	3
0	6063	663.188146542941	2
0	6067	663.584769056998	3
0	6068	663.840806184761	2
0	6072	663.987670229126	3
0	6074	664.155558268347	4
0	6076	664.416939255845	5
0	6077	664.493465826581	4
0	6081	664.935339064977	5
0	6082	665.146125468401	4
0	6085	665.798785110221	3
0	6089	666.104848007593	4
0	6091	666.254336673179	5
0	6092	666.451444752041	4
0	6094	666.451444752041	3
0	6097	666.616114451757	4
0	6099	666.847592687631	5
0	6100	667.104104393861	4
0	6102	667.104104393861	3
0	6105	667.202331841956	4
0	6107	667.660060376594	5
0	6108	667.756764035681	4
0	6112	667.908214881842	5
0	6114	668.345809007049	6
0	6115	668.409423677501	5
0	6119	668.611036432033	6
0	6120	669.062083319321	5
0	6122	669.062083319321	4
0	6125	669.239226414915	5
0	6127	669.44009388093	6
0	6128	669.714742961141	5
0	6130	669.714742961141	4
0	6133	669.912603061639	5
0	6136	670.657673190996	4
0	6137	670.657673190996	3
0	6139	671.310332832816	2
0	6141	671.310332832816	1
0	6144	671.677403612783	2
0	6146	671.715877943191	3
0	6147	671.962992474636	2
0	6151	672.090746495925	3
0	6153	672.346185254468	4
0	6155	672.420113171528	5
0	6156	672.615652116456	4
0	6159	673.268311758276	3
0	6163	673.306533290807	4
0	6165	673.501190086294	5
0	6167	673.628289382583	6
0	6168	673.920971400096	5
0	6172	674.272782341114	6
0	6173	674.573631041916	5
0	6175	674.573631041916	4
0	6176	674.573631041916	3
0	6178	675.226290683736	2
0	6181	675.878950325556	1
0	6183	675.878950325556	0
0	6186	676.047070441905	1
0	6188	676.274699006782	2
0	6189	676.531609967376	1
0	6192	677.184269609196	0
0	6201	678.354243092627	1
0	6203	678.489048824963	2
0	6205	678.549959404525	3
0	6206	678.858488929167	2
0	6209	679.511148570987	1
0	6212	680.163808212807	0
0	6221	683.2123044232	1
0	6222	683.696263943009	0
0	6226	683.965167195465	1
0	6228	684.157628843139	2
0	6229	684.348923584829	1
0	6233	684.594615539753	2
0	6235	684.709940469489	3
0	6237	684.814476005356	4
0	6238	685.001583226649	3
0	6242	685.586848029176	4
0	6243	685.654242868469	3
0	6247	685.668629501254	4
0	6248	686.306902510289	3
0	6252	686.629380382861	4
0	6253	686.959562152109	3
0	6255	686.959562152109	2
0	6258	687.527396507909	3
0	6260	687.546132606567	4
0	6262	687.554689896025	5
0	6263	687.612221793929	4
0	6267	687.873831111964	5
0	6269	687.899406208583	6
0	6271	688.089869430274	7
0	6272	688.264881435749	6
0	6276	688.88278475964	7
0	6277	688.917541077569	6
0	6280	689.570200719389	5
0	6283	690.222860361209	4
0	6285	690.222860361209	3
0	6286	690.222860361209	2
0	6287	690.222860361209	1
0	6288	690.222860361209	0
0	6291	690.702374162009	1
0	6293	690.854409626369	2
0	6294	690.875520003029	1
0	6297	691.528179644849	0
0	6301	692.151134270275	1
0	6303	692.157822905989	2
0	6304	692.180839286669	1
0	6308	692.234125464424	2
0	6310	692.657052005351	3
0	6313	693.123769516524	2
0	6315	693.776429158344	1
0	6319	693.935056574225	2
0	6320	694.429088800164	1
0	6323	695.081748441984	0
0	6327	695.163078194651	1
0	6328	695.734408083804	0
0	6332	696.168627339724	1
0	6333	696.387067725624	0
0	6342	697.381069355	1
0	6343	697.849028714479	0
0	6347	697.882962011977	1
0	6348	698.501688356299	0
0	6352	698.771999554507	1
0	6353	699.154347998119	0
0	6357	699.233224287091	1
0	6359	699.2818154376	2
0	6360	699.807007639939	1
0	6363	700.459667281759	0
0	6367	700.880581304104	1
0	6368	701.112326923579	0
0	6372	701.295790067758	1
0	6374	701.393885345051	2
0	6376	701.550807227599	3
0	6377	701.764986565399	2
0	6381	702.249006834364	3
0	6382	702.417646207219	2
0	6386	703.070303075325	3
0	6387	703.070305849039	2
0	6391	703.279778837027	3
0	6393	703.415014263222	4
0	6395	703.532289341871	5
0	6396	703.722965490859	4
0	6400	703.96212804352	5
0	6401	704.375625132679	4
0	6405	704.628322674146	5
0	6407	704.793778095132	6
0	6408	705.028284774499	5
0	6412	705.319497621751	6
0	6414	705.676968131523	7
0	6415	705.680944416319	6
0	6417	705.680944416319	5
0	6418	705.680944416319	4
0	6420	706.333604058139	3
0	6423	706.986263699959	2
0	6425	706.986263699959	1
0	6427	707.638923341779	0
0	6431	708.165653855467	1
0	6432	708.291582983599	0
0	6436	708.344054888621	1
0	6438	708.445988236238	2
0	6440	708.605187428022	3
0	6442	708.7513895187	4
0	6443	708.944242625419	3
0	6447	709.279977158217	4
0	6449	709.399869219631	5
0	6450	709.596902267239	4
0	6454	709.731912981526	5
0	6456	710.19630672136	6
0	6457	710.249561909059	5
0	6461	710.38858494248	6
0	6463	710.414485076374	7
0	6465	710.621113858729	8
0	6467	710.720245142304	9
0	6468	710.902221550879	8
0	6470	710.902221550879	7
0	6473	710.909620151173	8
0	6475	711.080649807839	9
0	6477	711.392151641957	10
0	6478	711.554881192699	9
0	6480	711.554881192699	8
0	6483	711.633328448713	9
0	6484	712.207540834519	8
0	6488	712.452477617	9
0	6491	713.150471064374	8
0	6492	713.150471064374	7
0	6493	713.150471064374	6
0	6494	713.150471064374	5
0	6495	713.150471064374	4
0	6496	713.150471064374	3
0	6497	713.150471064374	2
0	6499	713.803130706194	1
0	6501	713.803130706194	0
0	6509	715.490947840635	1
0	6510	715.560314858916	0
0	6514	716.117152669591	1
0	6515	716.212974500736	0
0	6524	717.629999756686	1
0	6526	717.928214516853	2
0	6527	718.000586418061	1
0	6531	718.022197041479	2
0	6533	718.058833331265	3
0	6535	718.122950906805	4
0	6537	718.127516991366	5
0	6538	718.653246059881	4
0	6541	719.305905701701	3
0	6544	719.958565343521	2
0	6548	720.583352838009	3
0	6549	720.611224985341	2
0	6551	720.611224985341	1
0	6552	720.611224985341	0
0	6565	723.260725895344	1
0	6566	723.741917276712	0
0	6570	723.769513490206	1
0	6571	724.394576918532	0
0	6575	724.677348203395	1
0	6577	724.742922386792	2
0	6578	725.047236560352	1
0	6582	725.191297781022	2
0	6583	725.699896202172	1
0	6587	726.098439558827	2
0	6589	726.118984292267	3
0	6590	726.352555843992	2
0	6593	727.005215485812	1
0	6597	727.371740541344	2
0	6599	727.515543591296	3
0	6600	727.657875127632	2
0	6604	728.21882026675	3
0	6605	728.310534769452	2
0	6608	728.963194411272	1
0	6612	729.253847196989	2
0	6613	729.615854053092	1
0	6617	729.682444590513	2
0	6619	729.850934373902	3
0	6621	730.067700936995	4
0	6622	730.268513694912	3
0	6626	730.411263177928	4
0	6628	730.411590766525	5
0	6629	730.921173336732	4
0	6633	731.224758675013	5
0	6635	731.462746999663	6
0	6636	731.573832978552	5
0	6640	732.149545879045	6
0	6641	732.226492620372	5
0	6643	732.226492620372	4
0	6646	732.842689287297	5
0	6647	732.879152262192	4
0	6649	732.879152262192	3
0	6652	733.163423751768	4
0	6653	733.531811904012	3
0	6655	733.531811904012	2
0	6658	733.553869324142	3
0	6660	734.079558977117	4
0	6661	734.184471545832	3
0	6665	734.65151204026	4
0	6669	734.997566690391	5
0	6670	735.127401775687	4
0	6673	735.492218678088	5
0	6675	735.754632440714	6
0	6676	735.780061417507	5
0	6678	735.780061417507	4
0	6681	736.374428536804	5
0	6682	736.432721059327	4
0	6686	736.560331537139	5
0	6688	737.036628350772	6
0	6689	737.085380701147	5
0	6691	737.085380701147	4
0	6693	737.738040342967	3
0	6697	738.330452331103	4
0	6698	738.390699984787	3
0	6702	738.571908395368	4
0	6703	739.043359626607	3
0	6705	739.043359626607	2
0	6708	739.060414578362	3
0	6710	739.06263962187	4
0	6712	739.67245034351	5
0	6713	739.696019268427	4
0	6716	740.348678910247	3
0	6719	741.001338552067	2
0	6723	741.081758046261	3
0	6725	741.107575600648	4
0	6727	741.477829657078	5
0	6728	741.653998193887	4
0	6730	741.653998193887	3
0	6732	742.306657835707	2
0	6735	742.959317477527	1
0	6739	743.272973242464	2
0	6741	743.306703178939	3
0	6742	743.611977119347	2
0	6744	743.611977119347	1
0	6747	743.632733514378	2
0	6748	744.264636761167	1
0	6752	744.482715741961	2
0	6754	744.821553493195	3
0	6755	744.917296402987	2
0	6758	745.569956044807	1
0	6761	746.222615686627	0
0	6765	746.37404457282	1
0	6767	746.575540790427	2
0	6769	746.843820086693	3
0	6770	746.875275328447	2
0	6774	746.999159090917	3
0	6775	747.527934970267	2
0	6779	747.539944228266	3
0	6781	747.551477830009	4
0	6783	747.8552458245	5
0	6785	747.858803449352	6
0	6786	748.180594612087	5
0	6789	748.833254253907	4
0	6793	748.863135751123	5
0	6795	749.022905603698	6
0	6797	749.396477839485	7
0	6798	749.485913895727	6
0	6802	749.951346969476	7
0	6804	750.072530633395	8
0	6805	750.138573537547	7
0	6807	750.138573537547	6
0	6808	750.138573537547	5
0	6809	750.138573537547	4
0	6812	750.485759205708	5
0	6814	750.640961650247	6
0	6815	750.791233179367	5
0	6818	751.443892821187	4
0	6822	751.489954373523	5
0	6824	752.017712039646	6
0	6825	752.096552463007	5
0	6827	752.096552463007	4
0	6829	752.749212104827	3
0	6831	752.749212104827	2
0	6832	752.749212104827	1
0	6835	753.213335956856	2
0	6837	753.253998033845	3
0	6838	753.401871746647	2
0	6842	753.583587275616	3
0	6844	753.635848566837	4
0	6846	753.942199672189	5
0	6847	754.054531388467	4
0	6853	754.82218463816	5
0	6854	754.997461618322	4
0	6856	755.650121260142	3
0	6858	755.650121260142	2
0	6861	755.671486962328	3
0	6863	755.939699396399	4
0	6864	756.302780901962	3
0	6866	756.302780901962	2
0	6868	756.955440543782	1
0	6872	757.074467932205	2
0	6874	757.195506981841	3
0	6876	757.434690587082	4
0	6878	757.442621236469	5
0	6879	757.608100185602	4
0	6883	758.081579232387	5
0	6884	758.260759827422	4
0	6888	758.784511390727	5
0	6890	758.807045434389	6
0	6891	758.913419469242	5
0	6895	759.023434719487	6
0	6897	759.046573207071	7
0	6899	759.495401774616	8
0	6900	759.566079111062	7
0	6902	759.566079111062	6
0	6903	759.566079111062	5
0	6906	759.689416360031	6
0	6908	759.862413655241	7
0	6909	760.218738752882	6
0	6913	760.608774910219	7
0	6914	760.871398394702	6
0	6916	760.871398394702	5
0	6918	761.524058036522	4
0	6920	761.524058036522	3
0	6923	761.620431307915	4
0	6925	762.058509161073	5
0	6926	762.176717678342	4
0	6928	762.176717678342	3
0	6929	762.176717678342	2
0	6932	762.655702829955	3
0	6933	762.829377320162	2
0	6937	763.407658363672	3
0	6938	763.482036961982	2
0	6942	763.668118161409	3
0	6944	763.918327161173	4
0	6945	764.134696603802	3
0	6949	764.13490876436	4
0	6950	764.787356245622	3
0	6954	765.046618399943	4
0	6955	765.440015887442	3
0	6959	765.603977102317	4
0	6960	766.092675529262	3
0	6962	766.092675529262	2
0	6965	766.126833314588	3
0	6967	766.188246528876	4
0	6969	766.625796143043	5
0	6970	766.745335171082	4
0	6974	767.228259252846	5
0	6975	767.397994812902	4
0	6979	767.953079885433	5
0	6980	768.050654454722	4
0	6984	768.089133930631	5
0	6986	768.248995683823	6
0	6988	768.295102881274	7
0	6990	768.380948423665	8
0	6991	768.703314096542	7
0	6993	768.703314096542	6
0	6994	768.703314096542	5
0	6996	769.355973738362	4
0	7000	769.712043934485	5
0	7002	769.984595349782	6
0	7003	770.008633380182	5
0	7006	770.661293022002	4
[...]
8	4344	481.540557579924	0
8	4351	482.193217221744	0
8	4354	482.845876863564	0
8	4363	483.498536505384	0
8	4366	484.151196147204	0
8	4372	484.803855789024	0
8	4377	485.456515430844	0
8	4386	486.109175072664	0
8	4391	486.761834714484	0
8	4396	487.414494356304	0
8	4401	488.067153998124	0
8	4411	488.719813639944	0
8	4415	489.372473281764	0
8	4420	490.025132923584	0
8	4431	490.968063153439	0
8	4437	491.620722795259	0
8	4448	492.273382437079	0
8	4453	492.926042078899	0
8	4456	493.578701720719	0
8	4464	494.231361362539	0
8	4472	494.884021004359	0
8	4477	495.536680646179	0
8	4482	496.189340287999	0
8	4491	496.841999929819	0
8	4499	497.494659571639	0
8	4504	498.147319213459	0
8	4515	498.799978855279	0
8	4520	499.452638497099	0
8	4528	500.105298138919	0
8	4534	500.757957780739	0
8	4543	501.410617422559	0
8	4547	502.063277064379	0
8	4555	502.715936706199	0
8	4562	503.368596348019	0
8	4570	504.021255989839	0
8	4575	504.673915631659	0
8	4580	505.326575273479	0
8	4586	505.979234915299	0
8	4602	506.631894557119	0
8	4609	507.284554198939	0
8	4614	507.937213840759	0
8	4619	508.589873482579	0
8	4627	509.242533124399	0
8	4633	509.895192766219	0
8	4639	510.838122996074	0
8	4646	511.490782637894	0
8	4651	512.143442279714	0
8	4656	512.796101921534	0
8	4661	513.448761563354	0
8	4670	514.101421205174	0
8	4675	514.754080846994	0
8	4682	515.406740488814	0
8	4685	516.059400130634	0
8	4691	516.712059772454	0
8	4697	517.364719414274	0
8	4704	518.017379056094	0
8	4707	518.670038697914	0
8	4710	519.322698339734	0
8	4713	519.975357981554	0
8	4716	520.628017623374	0
8	4723	521.316798206585	0
8	4730	521.969457848405	0
8	4733	522.622117490225	0
8	4736	523.274777132045	0
8	4741	524.287006513235	0
8	4746	525.2976986146	0
8	4757	526.067926513413	0
8	4760	526.720586155233	0
8	4767	527.373245797053	0
8	4770	528.025905438873	0
8	4781	528.678565080693	0
8	4784	529.331224722513	0
8	4789	529.983884364333	0
8	4792	530.636544006153	0
8	4802	531.579474236008	0
8	4809	532.232133877828	0
8	4814	532.884793519648	0
8	4817	533.537453161468	0
8	4822	534.190112803288	0
8	4829	534.842772445108	0
8	4832	535.495432086928	0
8	4841	536.148091728748	0
8	4844	536.800751370568	0
8	4851	537.453411012388	0
8	4854	538.106070654208	0
8	4859	538.758730296028	0
8	4864	539.411389937848	0
8	4870	540.064049579668	0
8	4879	540.716709221488	0
8	4888	541.369368863308	0
8	4893	542.022028505128	0
8	4898	542.674688146948	0
8	4907	543.327347788768	0
8	4914	543.980007430588	0
8	4918	544.632667072408	0
8	4923	545.285326714228	0
8	4928	545.937986356048	0
8	4933	546.590645997868	0
8	4938	547.243305639688	0
8	4943	547.895965281508	0
8	4950	548.548624923328	0
8	4957	549.201284565148	0
8	4960	549.853944206968	0
8	4963	550.506603848788	0
8	4971	551.449534078643	0
8	4976	552.102193720463	0
8	4985	552.754853362283	0
8	4994	553.407513004103	0
8	4999	554.060172645923	0
8	5006	554.712832287743	0
8	5011	555.365491929563	0
8	5021	556.018151571383	0
8	5028	556.670811213203	0
8	5037	557.323470855023	0
8	5042	557.976130496843	0
8	5047	558.628790138663	0
8	5055	559.281449780483	0
8	5065	559.934109422303	0
8	5073	560.586769064123	0
8	5076	561.239428705943	0
8	5079	561.892088347763	0
8	5090	562.544747989583	0
8	5099	563.197407631403	0
8	5106	563.850067273223	0
8	5113	564.502726915043	0
8	5117	565.155386556863	0
8	5123	565.808046198683	0
8	5130	566.460705840503	0
8	5138	567.113365482323	0
8	5147	567.766025124143	0
8	5150	568.418684765963	0
8	5159	569.071344407783	0
8	5164	569.724004049603	0
8	5173	570.376663691423	0
8	5181	571.319593921278	0
8	5188	571.972253563098	0
8	5195	572.624913204918	0
8	5202	573.277572846738	0
8	5208	573.930232488558	0
8	5217	574.582892130378	0
8	5222	575.235551772198	0
8	5229	575.888211414018	0
8	5236	576.540871055838	0
8	5240	577.193530697658	0
8	5248	577.846190339478	0
8	5253	578.498849981298	0
8	5261	579.151509623118	0
8	5264	579.804169264938	0
8	5271	580.456828906758	0
8	5274	581.109488548578	0
8	5282	581.762148190398	0
8	5291	582.414807832218	0
8	5294	583.067467474038	0
8	5299	583.720127115858	0
8	5302	584.372786757678	0
8	5313	585.025446399498	0
8	5320	585.678106041318	0
8	5323	586.330765683138	0
8	5326	586.983425324958	0
8	5331	587.636084966778	0
8	5339	588.288744608598	0
8	5348	588.941404250418	0
8	5357	589.594063892238	0
8	5364	590.246723534058	0
8	5374	591.189653763913	0
8	5381	591.842313405733	0
8	5391	592.494973047553	0
8	5400	593.147632689373	0
8	5408	593.800292331193	0
8	5417	594.452951973013	0
8	5423	595.105611614833	0
8	5430	595.758271256653	0
8	5435	596.410930898473	0
8	5445	597.063590540293	0
8	5450	597.716250182113	0
8	5457	598.368909823933	0
8	5464	599.021569465753	0
8	5470	599.674229107573	0
8	5475	600.326888749393	0
8	5481	600.979548391213	0
8	5486	601.632208033033	0
8	5493	602.284867674853	0
8	5501	602.937527316673	0
8	5512	603.590186958493	0
8	5515	604.242846600313	0
8	5521	604.895506242133	0
8	5525	605.548165883953	0
8	5532	606.200825525773	0
8	5537	606.853485167593	0
8	5542	607.506144809413	0
8	5547	608.158804451233	0
8	5552	608.811464093053	0
8	5559	609.464123734873	0
8	5564	610.116783376693	0
8	5572	611.059713606548	0
8	5577	611.712373248368	0
8	5582	612.365032890188	0
8	5585	613.017692532008	0
8	5593	613.670352173828	0
8	5598	614.323011815648	0
8	5603	614.975671457468	0
8	5608	615.628331099288	0
8	5615	616.280990741108	0
8	5622	616.933650382928	0
8	5629	617.586310024748	0
8	5636	618.238969666568	0
8	5641	618.891629308388	0
8	5649	619.544288950208	0
8	5658	620.196948592028	0
8	5661	620.849608233848	0
8	5672	621.502267875668	0
8	5679	622.154927517488	0
8	5682	622.807587159308	0
8	5689	623.460246801128	0
8	5696	624.112906442948	0
8	5706	624.765566084768	0
8	5713	625.418225726588	0
8	5720	626.070885368408	0
8	5725	626.723545010228	0
8	5730	627.376204652048	0
8	5738	628.028864293868	0
8	5746	628.681523935688	0
8	5751	629.334183577508	0
8	5758	629.986843219328	0
8	5767	630.929773449183	0
8	5774	631.582433091003	0
8	5779	632.235092732823	0
8	5787	632.887752374643	0
8	5795	633.540412016463	0
8	5801	634.193071658283	0
8	5806	634.845731300103	0
8	5818	635.498390941923	0
8	5824	636.151050583743	0
8	5829	636.803710225563	0
8	5834	637.456369867383	0
8	5842	638.109029509203	0
8	5845	638.761689151023	0
8	5854	639.414348792843	0
8	5859	640.067008434663	0
8	5862	640.719668076483	0
8	5869	641.372327718303	0
8	5878	642.024987360123	0
8	5890	642.677647001943	0
8	5903	643.330306643763	0
8	5906	643.982966285583	0
8	5912	644.635625927403	0
8	5923	645.288285569223	0
8	5929	645.940945211043	0
8	5934	646.593604852863	0
8	5941	647.246264494683	0
8	5949	647.898924136503	0
8	5954	648.551583778323	0
8	5959	649.204243420143	0
8	5964	649.856903061963	0
8	5972	650.799833291818	0
8	5977	651.452492933638	0
8	5982	652.105152575458	0
8	5989	652.757812217278	0
8	5992	653.410471859098	0
8	5995	654.063131500918	0
8	6000	654.715791142738	0
8	6005	655.368450784558	0
8	6010	656.021110426378	0
8	6015	656.673770068198	0
8	6020	657.326429710018	0
8	6023	657.979089351838	0
8	6032	659.272188692021	0
8	6037	659.924848333841	0
8	6042	660.577507975661	0
8	6045	661.230167617481	0
8	6054	661.882827259301	0
8	6059	662.535486901121	0
8	6064	663.188146542941	0
8	6069	663.840806184761	0
8	6078	664.493465826581	0
8	6083	665.146125468401	0
8	6086	665.798785110221	0
8	6093	666.451444752041	0
8	6101	667.104104393861	0
8	6109	667.756764035681	0
8	6116	668.409423677501	0
8	6121	669.062083319321	0
8	6129	669.714742961141	0
8	6135	670.367402602961	0
8	6140	671.310332832816	0
8	6148	671.962992474636	0
8	6157	672.615652116456	0
8	6160	673.268311758276	0
8	6169	673.920971400096	0
8	6174	674.573631041916	0
8	6179	675.226290683736	0
8	6182	675.878950325556	0
8	6190	676.531609967376	0
8	6193	677.184269609196	0
8	6196	677.836929251016	0
8	6207	678.858488929167	0
8	6210	679.511148570987	0
8	6213	680.163808212807	0
8	6216	680.816467854627	0
8	6223	683.696263943009	0
8	6230	684.348923584829	0
8	6239	685.001583226649	0
8	6244	685.654242868469	0
8	6249	686.306902510289	0
8	6254	686.959562152109	0
8	6264	687.612221793929	0
8	6273	688.264881435749	0
8	6278	688.917541077569	0
8	6281	689.570200719389	0
8	6284	690.222860361209	0
8	6295	690.875520003029	0
8	6298	691.528179644849	0
8	6305	692.180839286669	0
8	6312	692.833498928489	0
8	6316	693.776429158344	0
8	6321	694.429088800164	0
8	6324	695.081748441984	0
8	6329	695.734408083804	0
8	6334	696.387067725624	0
8	6337	697.039727367444	0
8	6344	697.849028714479	0
8	6349	698.501688356299	0
8	6354	699.154347998119	0
8	6361	699.807007639939	0
8	6364	700.459667281759	0
8	6369	701.112326923579	0
8	6378	701.764986565399	0
8	6383	702.417646207219	0
8	6388	703.070305849039	0
8	6397	703.722965490859	0
8	6402	704.375625132679	0
8	6409	705.028284774499	0
8	6416	705.680944416319	0
8	6421	706.333604058139	0
8	6424	706.986263699959	0
8	6428	707.638923341779	0
8	6433	708.291582983599	0
8	6444	708.944242625419	0
8	6451	709.596902267239	0
8	6458	710.249561909059	0
8	6469	710.902221550879	0
8	6479	711.554881192699	0
8	6485	712.207540834519	0
8	6490	712.860200476339	0
8	6500	713.803130706194	0
8	6504	714.455790348014	0
8	6511	715.560314858916	0
8	6516	716.212974500736	0
8	6519	716.865634142556	0
8	6528	718.000586418061	0
8	6539	718.653246059881	0
8	6542	719.305905701701	0
8	6545	719.958565343521	0
8	6550	720.611224985341	0
8	6555	721.263884627161	0
8	6560	723.000308738103	0
8	6567	723.741917276712	0
8	6572	724.394576918532	0
8	6579	725.047236560352	0
8	6584	725.699896202172	0
8	6591	726.352555843992	0
8	6594	727.005215485812	0
8	6601	727.657875127632	0
8	6606	728.310534769452	0
8	6609	728.963194411272	0
8	6614	729.615854053092	0
8	6623	730.268513694912	0
8	6630	730.921173336732	0
8	6637	731.573832978552	0
8	6642	732.226492620372	0
8	6648	732.879152262192	0
8	6654	733.531811904012	0
8	6662	734.184471545832	0
8	6667	734.837131187652	0
8	6677	735.780061417507	0
8	6683	736.432721059327	0
8	6690	737.085380701147	0
8	6694	737.738040342967	0
8	6699	738.390699984787	0
8	6704	739.043359626607	0
8	6714	739.696019268427	0
8	6717	740.348678910247	0
8	6720	741.001338552067	0
8	6729	741.653998193887	0
8	6733	742.306657835707	0
8	6736	742.959317477527	0
8	6743	743.611977119347	0
8	6749	744.264636761167	0
8	6756	744.917296402987	0
8	6759	745.569956044807	0
8	6762	746.222615686627	0
8	6771	746.875275328447	0
8	6776	747.527934970267	0
8	6787	748.180594612087	0
8	6790	748.833254253907	0
8	6799	749.485913895727	0
8	6806	750.138573537547	0
8	6816	750.791233179367	0
8	6819	751.443892821187	0
8	6826	752.096552463007	0
8	6830	752.749212104827	0
8	6839	753.401871746647	0
8	6848	754.054531388467	0
8	6851	754.707191030287	0
8	6857	755.650121260142	0
8	6865	756.302780901962	0
8	6869	756.955440543782	0
8	6880	757.608100185602	0
8	6885	758.260759827422	0
8	6892	758.913419469242	0
8	6901	759.566079111062	0
8	6910	760.218738752882	0
8	6915	760.871398394702	0
8	6919	761.524058036522	0
8	6927	762.176717678342	0
8	6934	762.829377320162	0
8	6939	763.482036961982	0
8	6946	764.134696603802	0
8	6951	764.787356245622	0
8	6956	765.440015887442	0
8	6961	766.092675529262	0
8	6971	766.745335171082	0
8	6976	767.397994812902	0
8	6981	768.050654454722	0
8	6992	768.703314096542	0
8	6997	769.355973738362	0
8	7004	770.008633380182	0
8	7007	770.661293022002	0
8	7013	771.313952663822	0
8	7016	771.966612305642	0
8	7023	772.884003731735	0
8	7028	773.536663373555	0
8	7033	774.189323015375	0
8	7042	774.841982657195	0
8	7050	775.78491288705	0
8	7055	776.43757252887	0
8	7060	777.09023217069	0
8	7065	777.74289181251	0
8	7069	778.39555145433	0
8	7074	779.04821109615	0
8	7077	779.70087073797	0
8	7084	780.35353037979	0
8	7087	781.00619002161	0
8	7090	781.65884966343	0
8	7099	782.464406709686	0
8	7106	783.117066351506	0
8	7115	783.769725993326	0
8	7118	784.422385635146	0
8	7121	785.075045276966	0
8	7132	785.727704918786	0
8	7143	786.380364560606	0
8	7150	787.033024202426	0
8	7159	787.685683844246	0
8	7162	788.338343486066	0
8	7172	788.991003127886	0
8	7178	789.643662769706	0
8	7185	790.296322411526	0
8	7189	790.948982053346	0
8	7199	791.601641695166	0
8	7202	792.254301336986	0
8	7208	792.906960978806	0
8	7213	793.559620620626	0
8	7221	794.212280262446	0
8	7232	794.864939904266	0
8	7238	795.807870134121	0
8	7245	796.460529775941	0
8	7249	797.113189417761	0
8	7257	797.765849059581	0
8	7264	798.418508701401	0
8	7269	799.071168343221	0
8	7274	799.723827985041	0
8	7279	800.376487626861	0
8	7284	801.029147268681	0
8	7291	801.681806910501	0
8	7296	802.334466552321	0
8	7303	802.987126194141	0
8	7306	803.639785835961	0
8	7312	804.292445477781	0
8	7321	804.945105119601	0
8	7324	805.597764761421	0
8	7329	806.250424403241	0
8	7338	806.903084045061	0
8	7342	807.555743686881	0
8	7349	808.208403328701	0
8	7360	808.861062970521	0
8	7371	809.513722612341	0
8	7378	810.166382254161	0
8	7381	810.819041895981	0
8	7390	811.471701537801	0
8	7402	812.124361179621	0
8	7414	812.777020821441	0
8	7423	813.429680463261	0
8	7432	814.082340105081	0
8	7439	814.734999746901	0
8	7458	815.677929976756	0
8	7462	816.330589618576	0
8	7473	816.983249260396	0
8	7478	817.635908902216	0
8	7488	818.288568544036	0
8	7499	818.941228185856	0
8	7503	819.593887827676	0
8	7508	820.246547469496	0
8	7511	820.899207111316	0
8	7523	821.551866753136	0
8	7530	822.204526394956	0
8	7533	822.857186036776	0
8	7538	823.509845678596	0
8	7548	824.162505320416	0
8	7552	824.815164962236	0
8	7561	825.467824604056	0
8	7564	826.120484245876	0
8	7567	826.773143887696	0
8	7574	827.425803529516	0
8	7579	828.078463171336	0
8	7588	828.731122813156	0
8	7593	829.383782454976	0
8	7600	830.036442096796	0
8	7609	830.689101738616	0
8	7614	831.341761380436	0
8	7617	831.994421022256	0
8	7621	832.647080664076	0
8	7630	833.299740305896	0
8	7633	833.952399947716	0
8	7636	834.605059589536	0
8	7646	835.736003219257	0
8	7651	836.388662861077	0
8	7656	837.041322502897	0
8	7661	837.693982144717	0
8	7664	838.346641786537	0
8	7671	838.999301428357	0
8	7676	839.651961070177	0
8	7683	840.304620711997	0
8	7688	840.957280353817	0
8	7697	841.609939995637	0
8	7704	842.262599637457	0
8	7711	842.915259279277	0
8	7716	843.567918921097	0
8	7721	844.220578562917	0
8	7731	844.873238204737	0
8	7737	845.525897846557	0
8	7744	846.178557488377	0
8	7747	846.831217130197	0
8	7753	847.483876772017	0
8	7758	848.136536413837	0
8	7764	848.789196055657	0
8	7767	849.441855697477	0
8	7772	850.094515339297	0
8	7777	850.747174981117	0
8	7786	851.399834622937	0
8	7791	852.052494264757	0
8	7798	852.705153906577	0
8	7807	853.357813548397	0
8	7812	854.010473190217	0
8	7817	854.663132832037	0
8	7825	855.606063061892	0
8	7831	856.258722703712	0
8	7840	856.911382345532	0
8	7846	857.564041987352	0
8	7849	858.216701629172	0
8	7854	858.869361270992	0
8	7859	859.522020912812	0
8	7865	860.174680554632	0
8	7870	860.827340196452	0
8	7877	861.479999838272	0
8	7880	862.132659480092	0
8	7885	862.785319121912	0
8	7892	863.437978763732	0
8	7899	864.090638405552	0
8	7906	864.743298047372	0
8	7909	865.395957689192	0
8	7918	866.048617331012	0
8	7923	866.701276972832	0
8	7932	867.353936614652	0
8	7935	868.006596256472	0
8	7940	868.659255898292	0
8	7943	869.311915540112	0
8	7948	869.964575181932	0
8	7953	870.66938642344	0
8	7962	871.70628709134	0
8	7967	872.35894673316	0
8	7974	873.01160637498	0
8	7981	873.6642660168	0
8	7986	874.31692565862	0
8	7989	874.96958530044	0
8	7996	875.912515530295	0
8	8008	876.565175172115	0
8	8011	877.217834813935	0
8	8014	877.870494455755	0
8	8017	878.523154097575	0
8	8024	879.175813739395	0
8	8027	879.828473381215	0
8	8032	880.481133023035	0
8	8039	881.133792664855	0
8	8046	881.786452306675	0
8	8049	882.439111948495	0
8	8054	883.091771590315	0
8	8063	883.744431232135	0
8	8066	884.397090873955	0
8	8071	885.049750515775	0
8	8078	885.702410157595	0
8	8083	886.355069799415	0
8	8086	887.007729441235	0
8	8091	887.660389083055	0
8	8096	888.313048724875	0
8	8100	888.965708366695	0
8	8105	889.618368008515	0
8	8110	890.271027650335	0
8	8113	890.923687292155	0
8	8118	891.878024871931	0
8	8125	892.718020638134	0
8	8134	893.370680279954	0
8	8139	894.023339921774	0
8	8144	894.675999563594	0
8	8151	895.328659205414	0
8	8164	896.271589435269	0
8	8167	896.924249077089	0
8	8174	897.576908718909	0
8	8179	898.229568360729	0
8	8189	898.882228002549	0
8	8194	899.534887644369	0
8	8199	900.187547286189	0
8	8202	900.840206928009	0
8	8206	901.492866569829	0
8	8209	902.145526211649	0
8	8222	902.86555525614	0
8	8229	903.51821489796	0
8	8232	904.17087453978	0
8	8241	904.8235341816	0
8	8251	905.47619382342	0
8	8255	906.12885346524	0
8	8262	906.78151310706	0
8	8268	907.43417274888	0
8	8277	908.0868323907	0
8	8284	908.73949203252	0
8	8287	909.39215167434	0
8	8294	910.04481131616	0
8	8306	910.69747095798	0
8	8314	911.3501305998	0
8	8317	912.00279024162	0
8	8324	912.65544988344	0
8	8328	913.30810952526	0
8	8336	913.96076916708	0
8	8339	914.6134288089	0
8	8342	915.26608845072	0
8	8350	916.209018680575	0
8	8357	916.861678322395	0
8	8360	917.514337964215	0
8	8365	918.166997606035	0
8	8372	918.819657247855	0
8	8377	919.472316889675	0
8	8386	920.124976531495	0
8	8391	920.777636173315	0
8	8394	921.430295815135	0
8	8401	922.082955456955	0
8	8407	922.735615098775	0
8	8412	923.388274740595	0
8	8421	924.040934382415	0
8	8428	924.693594024235	0
8	8437	925.346253666055	0
8	8444	925.998913307875	0
8	8448	926.651572949695	0
8	8455	927.304232591515	0
8	8462	927.956892233335	0
8	8467	928.609551875155	0
8	8470	929.262211516975	0
8	8473	929.914871158795	0
8	8480	930.567530800615	0
8	8483	931.220190442435	0
8	8490	931.872850084255	0
8	8499	932.525509726075	0
8	8502	933.178169367895	0
8	8507	933.830829009715	0
8	8514	934.483488651535	0
8	8522	935.136148293355	0
8	8528	936.07907852321	0
8	8531	936.73173816503	0
8	8540	937.38439780685	0
8	8548	938.03705744867	0
8	8551	938.68971709049	0
8	8558	939.34237673231	0
8	8568	939.99503637413	0
8	8580	940.64769601595	0
8	8587	941.30035565777	0
8	8592	941.95301529959	0
8	8600	942.60567494141	0
8	8607	943.25833458323	0
8	8612	943.91099422505	0
8	8618	944.56365386687	0
8	8622	945.21631350869	0
8	8627	945.86897315051	0
8	8632	946.52163279233	0
8	8635	947.17429243415	0
8	8642	947.916422407664	0
8	8649	948.569082049484	0
8	8652	949.221741691304	0
8	8659	949.874401333124	0
8	8666	950.527060974944	0
8	8671	951.179720616764	0
8	8680	951.832380258584	0
8	8689	952.485039900404	0
8	8694	953.137699542224	0
8	8699	953.790359184044	0
8	8707	954.443018825864	0
8	8722	955.095678467684	0
8	8735	956.038608697539	0
8	8743	956.691268339359	0
8	8748	957.343927981179	0
8	8757	957.996587622999	0
8	8773	958.649247264819	0
8	8781	959.301906906639	0
8	8788	959.954566548459	0
8	8793	960.607226190279	0
8	8802	961.259885832099	0
8	8808	961.912545473919	0
8	8816	962.565205115739	0
8	8823	963.217864757559	0
8	8832	963.870524399379	0
8	8839	964.523184041199	0
8	8843	965.175843683019	0
8	8849	965.828503324839	0
8	8856	966.481162966659	0
8	8863	967.133822608479	0
8	8868	967.786482250299	0
8	8871	968.439141892119	0
8	8880	969.091801533939	0
8	8883	969.744461175759	0
8	8893	970.397120817579	0
8	8898	971.049780459399	0
8	8909	971.702440101219	0
8	8914	972.355099743039	0
8	8924	973.007759384859	0
8	8928	973.660419026679	0
8	8933	974.313078668499	0
8	8940	974.965738310319	0
8	8949	975.908668540174	0
8	8954	976.561328181994	0
8	8965	977.213987823814	0
8	8970	977.866647465634	0
8	8983	978.519307107454	0
8	8988	979.171966749274	0
8	8992	979.824626391094	0
8	9000	980.477286032914	0
8	9007	981.129945674734	0
8	9012	981.782605316554	0
8	9015	982.435264958374	0
8	9024	983.087924600194	0
8	9033	983.740584242014	0
8	9036	984.393243883834	0
8	9043	985.045903525654	0
8	9048	985.698563167474	0
8	9055	986.351222809294	0
8	9060	987.003882451114	0
8	9065	987.656542092934	0
8	9068	988.309201734754	0
8	9073	988.961861376574	0
8	9080	989.614521018394	0
8	9083	990.267180660214	0
8	9092	990.919840302034	0
8	9097	991.572499943854	0
8	9102	992.225159585674	0
8	9109	992.877819227494	0
8	9115	993.530478869314	0
8	9122	994.183138511134	0
8	9125	994.835798152954	0
8	9134	995.778728382809	0
8	9141	996.431388024629	0
8	9149	997.084047666449	0
8	9156	997.736707308269	0
8	9163	998.389366950089	0
8	9168	999.042026591909	0
8	9178	999.694686233729	0

