version 2
run General-70-20240201-11:04:16-40057
attr configname General
attr datetime 20240201-11:04:16
attr experiment General
attr inifile main.ini
attr iterationvars "$0=2.0, $1=3.5, $2=30"
attr iterationvarsf 2.0,3.5,30-
attr measurement "$0=2.0, $1=3.5, $2=30"
attr network Rete
attr processid 40057
attr repetition 10
attr replication #10
attr resultdir results
attr runnumber 70
attr seedset 70
param Rete.lambda 2.0
param Rete.a 0.3s
param Rete.b 3.5s
param Rete.c 0.1s
param Rete.d 0.3s
param Rete.mu 3.0
param Rete.source2.interArrivalTime exponential(1s/lambda)
param Rete.source2.jobServiceTime exponential(1s/mu)
param Rete.source2.deadline uniform(a,b)
param Rete.server2.j 30
param Rete.server2.V uniform(c,d)

vector 0 Rete.passiveQueue queueLength:vector ETV
attr interpolationmode sample-hold
attr title "queue length, vector"
vector 1 Rete.passiveQueue queueingTime:vector ETV
attr interpolationmode none
attr title "queueing time at dequeue, vector"
attr unit s
vector 2 Rete.sink lifeTime:vector ETV
attr interpolationmode none
attr title "lifetime of arrived jobs, vector"
attr unit s
vector 3 Rete.sink totalQueueingTime:vector ETV
attr interpolationmode none
attr title "the total time spent in queues by arrived jobs, vector"
attr unit s
vector 4 Rete.sink queuesVisited:vector ETV
attr interpolationmode none
attr title "the total number of queues visited by arrived jobs, vector"
vector 5 Rete.sink totalServiceTime:vector ETV
attr interpolationmode none
attr title "the total time spent  by arrived jobs, vector"
attr unit s
vector 6 Rete.sink totalDelayTime:vector ETV
attr interpolationmode none
attr title "the total time spent in delay nodes by arrived jobs, vector"
attr unit s
vector 7 Rete.sink delaysVisited:vector ETV
attr interpolationmode none
attr title "the total number of delays visited by arrived jobs, vector"
vector 8 Rete.sink generation:vector ETV
attr interpolationmode none
attr title "the generation of the arrived jobs, vector"
0	0	0	0
0	5	1.751244482295	1
0	7	1.818309593585	2
0	8	1.998303824289	1
0	11	2.684657499737	0
0	15	2.996145234903	1
0	17	3.089655526519	2
0	19	3.280163181451	3
0	20	3.371011175185	2
0	23	4.057364850633	1
0	27	4.269036578353	2
0	29	4.34912571029	3
0	31	4.365588929483	4
0	32	4.743718526081	3
0	36	5.34698420713	4
0	37	5.430072201529	3
0	41	5.555957758782	4
0	43	5.840274264369	5
0	45	6.086393479096	6
0	46	6.116425876977	5
0	48	6.116425876977	4
0	49	6.116425876977	3
0	52	6.426529491867	4
0	54	6.49445781453	5
0	56	6.795712396279	6
0	57	6.802779552425	5
0	61	6.919819136865	6
0	63	7.145433373263	7
0	65	7.370570650999	8
0	66	7.489133227873	7
0	70	7.5226692789	8
0	72	7.593600337029	9
0	74	8.041021991375	10
0	75	8.175486903321	9
0	77	8.175486903321	8
0	78	8.175486903321	7
0	81	8.420130096616	8
0	83	8.605669893306	9
0	85	8.690721440567	10
0	87	8.713065675579	11
0	88	8.861840578769	10
0	90	8.861840578769	9
0	91	8.861840578769	8
0	94	8.944797410861	9
0	95	9.548194254217	8
0	97	9.548194254217	7
0	98	9.548194254217	6
0	99	9.548194254217	5
0	102	9.560521272851	6
0	104	10.102399195372	7
0	106	10.204749893715	8
0	107	10.234547929665	7
0	109	10.234547929665	6
0	112	10.568049998298	7
0	114	10.673852188753	8
0	115	10.920901605113	7
0	117	10.920901605113	6
0	118	10.920901605113	5
0	119	10.920901605113	4
0	122	11.251656719327	5
0	123	11.607255280561	4
0	127	11.915573355063	5
0	129	12.186637642569	6
0	131	12.253944315142	7
0	132	12.293608956009	6
0	134	12.293608956009	5
0	135	12.293608956009	4
0	138	12.789956233287	5
0	140	12.973365528024	6
0	141	12.979962631457	5
0	143	12.979962631457	4
0	146	13.109098102019	5
0	147	13.666316306905	4
0	150	14.352669982353	3
0	152	14.352669982353	2
0	155	14.469293727401	3
0	157	14.530820508526	4
0	158	15.039023657801	3
0	160	15.039023657801	2
0	161	15.039023657801	1
0	163	15.725377333249	0
0	172	16.749899919746	1
0	173	17.34178352366	0
0	187	20.584175635797	1
0	189	20.601508665133	2
0	191	20.603961391669	3
0	193	20.656514307922	4
0	194	21.200192449624	3
0	198	21.43207858209	4
0	200	21.717415859006	5
0	201	21.886546125072	4
0	205	22.278938247346	5
0	206	22.57289980052	4
0	208	22.57289980052	3
0	209	22.57289980052	2
0	211	23.259253475968	1
0	215	23.263408039421	2
0	217	23.474438139159	3
0	221	24.008965127622	4
0	222	24.06221995647	3
0	223	24.06221995647	2
0	226	24.217741615872	3
0	228	24.686409072003	4
0	229	24.748573631918	3
0	233	25.021462023137	4
0	235	25.035013834561	5
0	237	25.411553798289	6
0	238	25.434927307366	5
0	242	25.718400918077	6
0	243	26.121280982814	5
0	245	26.121280982814	4
0	247	26.807634658262	3
0	249	26.807634658262	2
0	250	26.807634658262	1
0	252	27.49398833371	0
0	259	28.266595764663	1
0	260	28.831444174584	0
0	269	30.413195855932	1
0	270	30.431426351732	0
0	279	31.427255482758	1
0	281	31.530793016634	2
0	283	31.776698043372	3
0	285	31.86097488762	4
0	286	31.90629686567	3
0	290	31.989788044344	4
0	292	32.006286799991	5
0	294	32.097075183181	6
0	296	32.252263677607	7
0	298	32.485697493037	8
0	299	32.592650541118	7
0	303	32.713589976528	8
0	305	32.909649196124	9
0	306	33.279004216566	8
0	309	33.965357892014	7
0	311	33.965357892014	6
0	312	33.965357892014	5
0	313	33.965357892014	4
0	314	33.965357892014	3
0	317	34.638087914375	4
0	318	34.651711567462	3
0	320	34.651711567462	2
0	321	34.651711567462	1
0	322	34.651711567462	0
0	325	34.987655440576	1
0	327	35.215357223723	2
0	328	35.33806524291	1
0	331	36.024418918358	0
0	335	36.371100508518	1
0	337	36.701816310606	2
0	338	36.710772593806	1
0	342	37.145280915476	2
0	344	37.255727326087	3
0	345	37.397126269254	2
0	349	37.728709122279	3
0	350	38.083479944702	2
0	353	38.76983362015	1
0	357	38.960887753946	2
0	359	39.04313189336	3
0	361	39.163267160335	4
0	363	39.279301727792	5
0	364	39.456187295598	4
0	366	39.456187295598	3
0	368	40.142540971046	2
0	372	40.208867830712	3
0	374	40.479622958328	4
0	376	40.506419257875	5
0	378	40.524253152552	6
0	380	40.656322860154	7
0	382	40.659062010964	8
0	383	40.828894646494	7
0	387	41.461172699427	8
0	388	41.515248321942	7
0	390	41.515248321942	6
0	392	42.20160199739	5
0	394	42.20160199739	4
0	397	42.205287337356	5
0	399	42.32986016448	6
0	400	42.887955672838	5
0	402	42.887955672838	4
0	403	42.887955672838	3
0	404	42.887955672838	2
0	407	43.2897915126	3
0	409	43.468023589122	4
0	410	43.574309348286	3
0	413	44.260663023734	2
0	415	44.260663023734	1
0	417	44.947016699182	0
0	421	44.96694327103	1
0	423	45.236330519669	2
0	425	45.310368200919	3
0	429	45.651145081209	4
0	431	45.681880026617	5
0	432	45.749983179684	4
0	435	45.784009041582	5
0	437	46.007565689816	6
0	439	46.084679639411	7
0	441	46.085409224029	8
0	443	46.14309782312	9
0	444	46.436336855132	8
0	448	46.60686539686	9
0	450	46.897800173335	10
0	451	47.12269053058	9
0	453	47.12269053058	8
0	456	47.633080045997	9
0	457	47.809044206028	8
0	459	47.809044206028	7
0	460	47.809044206028	6
0	461	47.809044206028	5
0	462	47.809044206028	4
0	463	47.809044206028	3
0	465	48.495397881476	2
0	467	48.495397881476	1
0	470	48.518872038836	2
0	471	49.181751556924	1
0	475	49.334046809906	2
0	476	49.868105232372	1
0	479	50.55445890782	0
0	483	50.800224167319	1
0	485	50.976303217355	2
0	486	51.240812583268	1
0	490	51.358829442792	2
0	492	51.651633928548	3
0	493	51.927166258716	2
0	497	52.133636321798	3
0	498	52.613519934164	2
0	502	52.901314246337	3
0	504	53.117565157747	4
0	505	53.299873609612	3
0	509	53.6115942581	4
0	510	53.98622728506	3
0	512	53.98622728506	2
0	515	54.616332156231	3
0	516	54.672580960508	2
0	520	55.079657719721	3
0	521	55.358934635956	2
0	523	55.358934635956	1
0	526	55.513998375682	2
0	528	55.966548099294	3
0	529	56.045288311404	2
0	532	56.731641986852	1
0	535	57.4179956623	0
0	539	57.66154282874	1
0	541	58.051539726628	2
0	542	58.104349337748	1
0	545	58.790703013196	0
0	549	59.042588193478	1
0	551	59.063694478434	2
0	553	59.295072190202	3
0	554	59.477056688644	2
0	558	60.069244757132	3
0	559	60.163410364092	2
0	563	60.237842248659	3
0	565	60.63431360868	4
0	566	60.84976403954	3
0	570	61.349176879099	4
0	571	61.536117714988	3
0	574	62.222471390436	2
0	576	62.222471390436	1
0	578	62.908825065884	0
0	582	63.093210130929	1
0	584	63.164787144758	2
0	586	63.185091186472	3
0	587	63.595178741332	2
0	590	64.28153241678	1
0	594	64.718641342605	2
0	596	64.720457958099	3
0	597	64.967886092228	2
0	599	64.967886092228	1
0	602	65.248678489007	2
0	603	65.654239767676	1
0	607	65.988226810969	2
0	610	66.457206248178	1
0	613	67.091639545019	2
0	614	67.143559923626	1
0	618	67.507380617053	2
0	619	67.829913599074	1
0	623	68.062041595169	2
0	624	68.516267274522	1
0	628	68.578687641164	2
0	629	69.20262094997	1
0	633	69.339720997727	2
0	634	69.888974625418	1
0	638	70.459452976708	2
0	639	70.575328300866	1
0	643	70.701086574219	2
0	644	71.261681976314	1
0	648	71.691471126476	2
0	649	71.948035651762	1
0	652	72.63438932721	0
0	656	72.917938734825	1
0	657	73.320743002658	0
0	666	74.088050501682	1
0	668	74.267235777662	2
0	670	74.568444993765	3
0	672	74.690396832809	4
0	673	74.762509558912	3
0	677	74.772239117278	4
0	679	75.006835279579	5
0	680	75.44886323436	4
0	683	76.135216909808	3
0	686	76.821570585256	2
0	688	76.821570585256	1
0	689	76.821570585256	0
0	695	77.494081282955	1
0	696	77.991020612915	0
0	705	78.85319754831	1
0	707	78.97183119648	2
0	709	79.214194258109	3
0	711	79.345895075373	4
0	712	79.47014542073	3
0	716	79.710077075384	4
0	718	79.884856795434	5
0	720	79.894220871407	6
0	722	79.930486711038	7
0	723	80.156499096178	6
0	727	80.240426812656	7
0	728	80.842852771626	6
0	731	81.529206447074	5
0	733	81.529206447074	4
0	734	81.529206447074	3
0	736	82.215560122522	2
0	738	82.215560122522	1
0	739	82.215560122522	0
0	750	83.84196052302	1
0	752	84.153219779094	2
0	754	84.26544071051	3
0	755	84.284393997379	2
0	759	84.360119757922	3
0	761	84.4152772455	4
0	762	84.970747672827	3
0	766	85.112642555562	4
0	768	85.278824937045	5
0	769	85.657101348275	4
0	772	86.343455023723	3
0	774	86.343455023723	2
0	775	86.343455023723	1
0	778	86.659203037918	2
0	780	86.70092312756	3
0	782	87.014143728271	4
0	783	87.029808699171	3
0	785	87.029808699171	2
0	788	87.416152326914	3
0	789	87.716162374619	2
0	793	87.872204730661	3
0	797	88.407632301324	4
0	798	88.519128855121	3
0	801	88.611594091974	4
0	803	88.958498281819	5
0	804	89.205482530569	4
0	806	89.205482530569	3
0	808	89.891836206017	2
0	812	90.336537884111	3
0	814	90.341716280552	4
0	815	90.578189881465	3
0	817	90.578189881465	2
0	820	90.686199116284	3
0	822	91.074832186236	4
0	823	91.264543556913	3
0	826	91.950897232361	2
0	830	91.990978718046	3
0	832	92.026960810572	4
0	834	92.576800696249	5
0	835	92.637250907809	4
0	837	92.637250907809	3
0	840	92.702842319754	4
0	841	93.323604583257	3
0	845	93.740483403035	4
0	846	94.009958258705	3
0	848	94.009958258705	2
0	851	94.459554631962	3
0	853	94.530993784964	4
0	854	94.696311934153	3
0	856	94.696311934153	2
0	859	95.118295957794	3
0	861	95.140704719955	4
0	863	95.262029521615	5
0	864	95.382665609601	4
0	868	95.512127005545	5
0	869	96.069019285049	4
0	873	96.559102372078	5
0	875	96.593824836251	6
0	876	96.755372960497	5
0	879	97.441726635945	4
0	881	97.441726635945	3
0	882	97.441726635945	2
0	883	97.441726635945	1
0	885	98.128080311393	0
0	889	98.150033467023	1
0	890	98.814433986841	0
0	894	99.143007929205	1
0	895	99.500787662289	0
0	899	99.656517578131	1
0	900	100.187141337737	0
0	904	100.686867734508	1
0	905	100.873495013185	0
0	909	101.155774400365	1
0	910	101.559848688633	0
0	914	101.851646998348	1
0	915	102.246202364081	0
0	929	104.575995789403	1
0	930	104.809645660513	0
0	934	104.994633443898	1
0	935	105.495999335961	0
0	939	106.118869417206	1
0	940	106.182353011409	0
0	944	106.305375511641	1
0	946	106.641323377731	2
0	947	106.868706686857	1
0	951	107.024541713426	2
0	953	107.241484185581	3
0	954	107.555060362305	2
0	957	108.241414037753	1
0	960	108.927767713201	0
0	980	111.789598966168	1
0	982	112.222582198917	2
0	983	112.372125503433	1
0	987	112.405951733088	2
0	988	113.058479178881	1
0	992	113.190389834302	2
0	994	113.202681205356	3
0	996	113.306063695756	4
0	998	113.463463422161	5
0	999	113.744832854329	4
0	1002	114.431186529777	3
0	1005	115.117540205225	2
0	1007	115.117540205225	1
0	1008	115.117540205225	0
0	1011	115.573982955716	1
0	1012	115.803893880673	0
0	1021	116.859458195133	1
0	1023	117.120415086887	2
0	1025	117.130167555109	3
0	1026	117.326207860624	2
0	1030	117.585024733416	3
0	1031	118.012561536072	2
0	1035	118.63683359676	3
0	1036	118.69891521152	2
0	1040	119.072941092211	3
0	1042	119.074320632955	4
0	1044	119.287025001105	5
0	1045	119.385268886968	4
0	1047	119.385268886968	3
0	1049	120.071622562416	2
0	1053	120.344242397627	3
0	1054	120.757976237864	2
0	1058	121.172736137029	3
0	1059	121.444329913312	2
0	1061	121.444329913312	1
0	1064	121.779386209474	2
0	1065	122.13068358876	1
0	1069	122.457370244015	2
0	1070	122.817037264208	1
0	1074	123.329017843209	2
0	1075	123.503390939656	1
0	1078	124.189744615104	0
0	1082	124.657369007697	1
0	1084	124.790561653112	2
0	1086	124.81129512148	3
0	1087	124.876098290552	2
0	1091	124.996244464462	3
0	1093	125.363613878256	4
0	1095	125.542241323113	5
0	1096	125.562451966	4
0	1100	125.860315281267	5
0	1102	126.241838147654	6
0	1103	126.248805641448	5
0	1107	126.296273110873	6
0	1108	126.935159316896	5
0	1110	126.935159316896	4
0	1113	127.07716648987	5
0	1115	127.549761095103	6
0	1116	127.621512992344	5
0	1118	127.621512992344	4
0	1119	127.621512992344	3
0	1122	127.729300482354	4
0	1124	127.776667852991	5
0	1126	128.15918900337	6
0	1127	128.307866667792	5
0	1129	128.307866667792	4
0	1132	128.336998378639	5
0	1134	128.984983564175	6
0	1135	128.99422034324	5
0	1138	129.680574018688	4
0	1140	129.680574018688	3
0	1141	129.680574018688	2
0	1144	129.732656691173	3
0	1145	130.366927694136	2
0	1147	130.366927694136	1
0	1150	130.763333938131	2
0	1153	131.169894174638	1
0	1156	131.347452242416	2
0	1158	131.761633069147	3
0	1159	131.856247850086	2
0	1163	131.88622354707	3
0	1165	131.951557539446	4
0	1167	132.150765207307	5
0	1169	132.336863182156	6
0	1171	132.430501158516	7
0	1172	132.542601525534	6
0	1176	132.866025413265	7
0	1177	133.228955200982	6
0	1181	133.57591585603	7
0	1182	133.91530887643	6
0	1184	133.91530887643	5
0	1185	133.91530887643	4
0	1186	133.91530887643	3
0	1188	134.601662551878	2
0	1190	134.601662551878	1
0	1191	134.601662551878	0
0	1194	135.137272053013	1
0	1195	135.288016227326	0
0	1199	135.5096415576	1
0	1200	135.974369902774	0
0	1204	136.116620114222	1
0	1206	136.213556917016	2
0	1208	136.639381480873	3
0	1209	136.660723578222	2
0	1213	136.941655736	3
0	1215	136.960631221821	4
0	1216	137.34707725367	3
0	1220	137.44734948663	4
0	1221	138.033430929118	3
0	1225	138.103168942333	4
0	1227	138.420462018839	5
0	1228	138.719784604566	4
0	1230	138.719784604566	3
0	1231	138.719784604566	2
0	1233	139.406138280014	1
0	1236	140.092491955462	0
0	1240	140.310291879461	1
0	1242	140.480832252622	2
0	1244	140.624354394265	3
0	1245	140.77884563091	2
0	1248	141.465199306358	1
0	1252	142.088125433461	2
0	1253	142.151552981806	1
0	1257	142.345428663312	2
0	1258	142.837906657254	1
0	1262	143.001250823931	2
0	1264	143.450922544756	3
0	1265	143.524260332702	2
0	1269	144.067538294918	3
0	1270	144.21061400815	2
0	1273	144.896967683598	1
0	1277	145.434900804079	2
0	1279	145.519107609833	3
0	1281	145.576216368991	4
0	1282	145.583321359046	3
0	1286	145.640500996032	4
0	1288	145.714023758155	5
0	1289	146.269675034494	4
0	1292	146.956028709942	3
0	1296	147.497855860702	4
0	1298	147.513834269727	5
0	1299	147.64238238539	4
0	1301	147.64238238539	3
0	1302	147.64238238539	2
0	1303	147.64238238539	1
0	1306	148.061338794987	2
0	1307	148.328736060838	1
0	1310	149.015089736286	0
0	1319	151.075070716878	1
0	1320	151.6759672681	0
0	1324	152.311825153795	1
0	1325	152.362320943548	0
0	1329	152.755796044693	1
0	1332	153.16528742405	0
0	1335	153.847256287151	1
0	1336	153.851641099498	0
0	1340	154.032155460454	1
0	1342	154.18269264939	2
0	1343	154.537994774946	1
0	1346	155.224348450394	0
0	1350	155.775547301214	1
0	1351	155.910702125842	0
0	1355	155.94866878752	1
0	1357	155.958227902261	2
0	1359	156.558275290901	3
0	1360	156.59705580129	2
0	1364	157.130169036844	3
0	1365	157.283409476738	2
0	1369	157.573093238522	3
0	1371	157.738436143176	4
0	1372	157.969763152186	3
0	1376	158.005599092929	4
0	1378	158.523462573363	5
0	1379	158.656116827634	4
0	1382	159.342470503082	3
0	1384	159.342470503082	2
0	1387	159.859440793325	3
0	1388	160.02882417853	2
0	1390	160.02882417853	1
0	1393	160.214866145627	2
0	1395	160.259551556488	3
0	1396	160.715177853978	2
0	1400	161.367351899951	3
0	1402	161.401163046725	4
0	1403	161.401531529426	3
0	1407	161.529794022934	4
0	1409	161.707242501291	5
0	1411	161.950315841743	6
0	1412	162.087885204874	5
0	1414	162.087885204874	4
0	1417	162.218668509528	5
0	1419	162.218907578854	6
0	1421	162.487772678198	7
0	1423	162.768017920641	8
0	1424	162.774238880322	7
0	1428	162.897330955799	8
0	1430	163.363059809214	9
0	1431	163.46059255577	8
0	1433	163.46059255577	7
0	1434	163.46059255577	6
0	1437	163.943408745426	7
0	1438	164.146946231218	6
0	1440	164.146946231218	5
0	1441	164.146946231218	4
0	1444	164.278813128042	5
0	1446	164.385269445676	6
0	1447	164.833299906666	5
0	1449	164.833299906666	4
0	1450	164.833299906666	3
0	1453	165.515098210108	4
0	1454	165.519653582114	3
0	1458	165.576002308216	4
0	1460	165.809776806306	5
0	1462	165.987868450299	6
0	1463	166.206007257562	5
0	1465	166.206007257562	4
0	1466	166.206007257562	3
0	1468	166.89236093301	2
0	1472	166.904101712221	3
0	1474	166.96085227618	4
0	1476	166.963083051968	5
0	1478	167.509119186239	6
0	1479	167.578714608458	5
0	1481	167.578714608458	4
0	1483	168.265068283906	3
0	1486	168.951421959354	2
0	1488	168.951421959354	1
0	1489	168.951421959354	0
0	1492	169.308860942919	1
0	1493	169.637775634802	0
0	1497	169.970602022533	1
0	1498	170.32412931025	0
0	1502	170.496758150088	1
0	1504	170.678497110678	2
0	1506	170.693073303553	3
0	1508	170.805771858029	4
0	1509	171.010482985698	3
0	1513	171.355741332089	4
0	1515	171.691367759514	5
0	1516	171.696836661146	4
0	1520	171.699734764698	5
0	1522	171.79154931388	6
0	1524	171.8105351879	7
0	1526	171.941259156749	8
0	1527	172.383190336594	7
0	1531	173.035016444373	8
0	1532	173.069544012042	7
0	1534	173.069544012042	6
0	1537	173.379942311425	7
0	1539	173.595402579136	8
0	1542	173.872510492544	7
0	1543	173.872510492544	6
0	1544	173.872510492544	5
0	1545	173.872510492544	4
0	1546	173.872510492544	3
0	1547	173.872510492544	2
0	1549	174.558864167992	1
0	1553	174.761256210502	2
0	1554	175.24521784344	1
0	1558	175.607900136254	2
0	1559	175.931571518888	1
0	1563	176.333498006601	2
0	1565	176.37458854052	3
0	1567	176.406418195567	4
0	1568	176.617925194336	3
0	1572	177.065172974908	4
0	1574	177.12126686193	5
0	1575	177.304278869784	4
0	1578	177.990632545232	3
0	1582	178.182225259811	4
0	1583	178.67698622068	3
0	1585	178.67698622068	2
0	1588	178.902877729367	3
0	1590	178.984886975517	4
0	1591	179.363339896128	3
0	1593	179.363339896128	2
0	1596	179.561729890524	3
0	1598	180.03461517095	4
0	1599	180.049693571576	3
0	1603	180.142659109652	4
0	1604	180.736047247024	3
0	1606	180.736047247024	2
0	1608	181.422400922472	1
0	1611	182.10875459792	0
0	1623	184.300388541539	1
0	1625	184.481407054387	2
0	1626	184.597598974551	1
0	1630	184.886306512318	2
0	1631	185.283952649999	1
0	1635	185.56014087893	2
0	1636	185.970306325447	1
0	1640	186.360691756661	2
0	1641	186.656660000895	1
0	1644	187.343013676343	0
0	1648	187.659660990296	1
0	1650	187.686375674077	2
0	1652	188.025522768646	3
0	1653	188.029367351791	2
0	1657	188.342640521964	3
0	1659	188.395792424258	4
0	1661	188.545680575382	5
0	1663	188.686414887265	6
0	1664	188.715721027239	5
0	1668	188.91075105527	6
0	1669	189.402074702687	5
0	1673	189.454507905486	6
0	1675	189.783286560347	7
0	1676	190.088428378135	6
0	1678	190.088428378135	5
0	1680	190.774782053583	4
0	1682	190.774782053583	3
0	1683	190.774782053583	2
0	1684	190.774782053583	1
0	1687	190.780239279689	2
0	1689	191.103269320856	3
0	1691	191.159871338277	4
0	1693	191.190439443844	5
0	1695	191.194724046434	6
0	1696	191.461135729031	5
0	1700	191.509123551352	6
0	1702	191.568627165008	7
0	1703	192.147489404479	6
0	1707	192.187613303203	7
0	1709	192.292664821298	8
0	1711	192.40976270502	9
0	1712	192.833843079927	8
0	1714	192.833843079927	7
0	1717	193.357820787624	8
0	1718	193.520196755375	7
0	1720	193.520196755375	6
0	1721	193.520196755375	5
0	1722	193.520196755375	4
0	1723	193.520196755375	3
0	1726	193.818405034432	4
0	1728	193.975386266836	5
0	1729	194.206550430823	4
0	1731	194.206550430823	3
0	1732	194.206550430823	2
0	1734	194.892904106271	1
0	1738	195.196307454138	2
0	1740	195.350008744189	3
0	1742	195.555899616207	4
0	1745	195.695870586773	3
0	1746	195.695870586773	2
0	1749	196.075146858889	3
0	1751	196.117883822871	4
0	1753	196.309484630167	5
0	1754	196.382224262221	4
0	1758	196.812809287143	5
0	1760	197.046573593404	6
0	1761	197.068577937669	5
0	1765	197.129217684315	6
0	1766	197.754931613117	5
0	1770	197.842313332041	6
0	1772	197.960849254106	7
0	1773	198.441285288565	6
0	1775	198.441285288565	5
0	1776	198.441285288565	4
0	1779	198.955415547583	5
0	1780	199.127638964013	4
0	1782	199.127638964013	3
0	1783	199.127638964013	2
0	1786	199.370762869997	3
0	1787	199.813992639461	2
0	1789	199.813992639461	1
0	1792	200.167580816872	2
0	1793	200.500346314909	1
0	1797	200.510843889018	2
0	1799	200.639797389699	3
0	1801	200.96364137421	4
0	1802	201.186699990357	3
0	1806	201.351886306255	4
0	1807	201.873053665805	3
0	1811	201.950599835211	4
0	1813	202.461306204267	5
0	1814	202.559407341253	4
0	1816	202.559407341253	3
0	1819	203.050142184629	4
0	1820	203.245761016701	3
0	1822	203.245761016701	2
0	1825	203.740717451048	3
0	1826	203.932114692149	2
0	1830	203.985754127471	3
0	1832	203.999515612045	4
0	1833	204.618468367597	3
0	1836	205.304822043045	2
0	1840	205.425527332678	3
0	1841	205.991175718493	2
0	1843	205.991175718493	1
0	1844	205.991175718493	0
0	1852	207.181076485762	1
0	1854	207.263688287943	2
0	1856	207.331306296207	3
0	1858	207.429185448278	4
0	1859	207.677376430861	3
0	1863	207.68327275955	4
0	1865	207.8842881708	5
0	1866	208.363730106309	4
0	1869	209.050083781757	3
0	1871	209.050083781757	2
0	1873	209.736437457205	1
0	1875	209.736437457205	0
0	1881	210.634800401389	1
0	1882	211.090130991262	0
0	1886	211.287188887897	1
0	1887	211.77648466671	0
0	1891	212.22289115779	1
0	1893	212.23725768862	2
0	1894	212.462838342158	1
0	1897	213.149192017606	0
0	1901	213.467968950644	1
0	1903	213.525802898542	2
0	1904	213.835545693054	1
0	1907	214.521899368502	0
0	1911	215.032279654695	1
0	1912	215.20825304395	0
0	1916	215.472778780675	1
0	1918	215.635114114361	2
0	1919	215.894606719398	1
0	1923	216.353350188069	2
0	1924	216.580960394846	1
0	1928	217.050279085763	2
0	1931	217.383926875348	1
0	1934	217.406473248981	2
0	1936	217.415524548617	3
0	1938	217.464502890607	4
0	1940	217.539553896247	5
0	1942	217.591108314929	6
0	1943	218.070280550796	5
0	1947	218.726771144222	6
0	1948	218.756634226244	5
0	1952	218.883491836269	6
0	1954	219.011073371699	7
0	1956	219.208549918375	8
0	1958	219.44241315577	9
0	1959	219.442987901692	8
0	1961	219.442987901692	7
0	1962	219.442987901692	6
0	1963	219.442987901692	5
0	1964	219.442987901692	4
0	1967	219.475356528715	5
0	1968	220.12934157714	4
0	1972	220.650837925679	5
0	1973	220.815695252588	4
0	1975	220.815695252588	3
0	1978	220.820078014159	4
0	1980	221.144555183364	5
0	1982	221.359173694885	6
0	1983	221.502048928036	5
0	1985	221.502048928036	4
0	1986	221.502048928036	3
0	1989	222.104864753268	4
0	1990	222.188402603484	3
0	1994	222.301963538848	4
0	1995	222.874756278932	3
0	1997	222.874756278932	2
0	2000	222.98476135393	3
0	2002	223.5081023048	4
0	2003	223.56110995438	3
0	2007	223.751942320771	4
0	2009	224.218984996647	5
0	2010	224.247463629828	4
0	2012	224.247463629828	3
0	2014	224.933817305276	2
0	2018	225.501474683517	3
0	2019	225.620170980724	2
0	2021	225.620170980724	1
0	2024	226.132307691551	2
0	2025	226.306524656172	1
0	2028	226.99287833162	0
0	2032	227.609142801347	1
0	2033	227.679232007068	0
0	2042	230.039321929077	1
0	2044	230.047646093615	2
0	2046	230.078471188993	3
0	2047	230.221991168687	2
0	2051	230.513149713175	3
0	2053	230.757600189336	4
0	2055	230.858210205131	5
0	2056	230.908344844135	4
0	2060	231.031002790935	5
0	2061	231.594698519583	4
0	2064	232.281052195031	3
0	2066	232.281052195031	2
0	2068	232.967405870479	1
0	2070	232.967405870479	0
0	2076	233.195634279297	1
0	2078	233.394871504291	2
0	2079	233.759499795199	1
0	2083	233.892543120643	2
0	2085	234.143551467118	3
0	2087	234.277028400333	4
0	2088	234.445853470647	3
0	2092	234.703763829896	4
0	2094	234.704651734221	5
0	2096	234.78984123076	6
0	2098	234.851704886991	7
0	2099	235.132207146095	6
0	2102	235.818560821543	5
0	2105	236.504914496991	4
0	2107	236.504914496991	3
0	2108	236.504914496991	2
0	2109	236.504914496991	1
0	2111	237.191268172439	0
0	2118	237.722830336565	1
0	2119	238.079224274079	0
0	2123	238.503445501895	1
0	2124	238.765577949527	0
0	2128	238.88681977644	1
0	2130	238.909695147715	2
0	2134	239.47512534246	3
0	2135	239.568544430029	2
0	2138	239.849937059779	3
0	2140	240.253874006638	4
0	2141	240.254898105477	3
0	2145	240.657083791586	4
0	2147	240.799259913609	5
0	2148	240.941251780925	4
0	2152	241.600085996799	5
0	2153	241.627605456373	4
0	2155	241.627605456373	3
0	2158	241.836136051685	4
0	2159	242.313959131821	3
0	2163	242.350757126068	4
0	2164	243.000312807269	3
0	2166	243.000312807269	2
0	2169	243.041497500292	3
0	2171	243.152790376042	4
0	2173	243.584160742451	5
0	2174	243.686666482717	4
0	2176	243.686666482717	3
0	2178	244.373020158165	2
0	2182	244.469296977761	3
0	2184	244.918208357144	4
0	2186	245.007832119487	5
0	2187	245.059373833613	4
0	2189	245.059373833613	3
0	2192	245.246255169729	4
0	2194	245.592451623967	5
0	2195	245.745727509061	4
0	2198	246.432081184509	3
0	2201	247.118434859957	2
0	2203	247.118434859957	1
0	2204	247.118434859957	0
0	2207	247.332352447097	1
0	2209	247.650649357921	2
0	2210	247.804788535405	1
0	2214	247.922831026747	2
0	2215	248.491142210853	1
0	2218	249.177495886301	0
0	2227	250.845617343652	1
0	2229	250.884101913245	2
0	2230	251.055529141231	1
0	2233	251.741882816679	0
0	2237	251.95326163896	1
0	2239	251.993024858067	2
0	2240	252.428236492127	1
0	2244	252.928566654975	2
0	2246	253.011487426196	3
0	2247	253.114590167575	2
0	2251	253.43569044974	3
0	2252	253.800943843023	2
0	2255	254.487297518471	1
0	2259	254.682344491906	2
0	2260	255.173651193919	1
0	2262	255.173651193919	0
0	2265	255.45033971974	1
0	2267	255.505675601491	2
0	2269	255.566224358023	3
0	2270	255.860004869367	2
0	2274	256.282313160129	3
0	2276	256.422394060181	4
0	2277	256.546358544815	3
0	2281	257.192880618841	4
0	2282	257.232712220263	3
0	2286	257.236677839296	4
0	2288	257.278128657191	5
0	2290	257.739627581061	6
0	2292	257.833944017623	7
0	2293	257.919065895711	6
0	2297	257.933614810256	7
0	2299	258.10343853976	8
0	2301	258.403342196128	9
0	2303	258.443817873973	10
0	2304	258.605419571159	9
0	2306	258.605419571159	8
0	2309	258.682688168748	9
0	2311	259.120137078127	10
0	2312	259.291773246607	9
0	2314	259.291773246607	8
0	2315	259.291773246607	7
0	2318	259.321453927847	8
0	2320	259.399073102531	9
0	2322	259.941718108849	10
0	2323	259.978126922055	9
0	2325	259.978126922055	8
0	2326	259.978126922055	7
0	2327	259.978126922055	6
0	2330	260.002274078223	7
0	2332	260.444120744908	8
0	2336	260.715448745771	9
0	2337	260.781093402557	8
0	2338	260.781093402557	7
0	2339	260.781093402557	6
0	2341	261.467447078005	5
0	2343	261.467447078005	4
0	2344	261.467447078005	3
0	2347	262.002858545177	4
0	2348	262.153800753453	3
0	2350	262.153800753453	2
0	2353	262.614573746878	3
0	2355	262.620292372373	4
0	2357	262.623233922798	5
0	2359	262.748360027875	6
0	2361	262.752986169989	7
0	2362	262.840154428901	6
0	2364	262.840154428901	5
0	2366	263.526508104349	4
0	2369	264.212861779797	3
0	2373	264.482669261267	4
0	2374	264.899215455245	3
0	2376	264.899215455245	2
0	2377	264.899215455245	1
0	2378	264.899215455245	0
0	2381	265.075318389816	1
0	2383	265.540616000608	2
0	2384	265.585569130693	1
0	2388	265.765466873987	2
0	2390	265.918572453454	3
0	2391	266.271922806141	2
0	2395	266.523777026981	3
0	2396	266.958276481589	2
0	2399	267.644630157037	1
0	2401	267.644630157037	0
0	2404	267.892550567763	1
0	2405	268.330983832485	0
0	2409	268.803307656306	1
0	2410	269.017337507933	0
0	2414	269.035660372988	1
0	2416	269.346837451691	2
0	2418	269.673297740574	3
0	2419	269.703691183381	2
0	2422	270.390044858829	1
0	2426	270.499882125396	2
0	2427	271.076398534277	1
0	2431	271.16150116095	2
0	2432	271.762752209725	1
0	2435	272.449105885173	0
0	2439	272.776303556924	1
0	2441	272.954845079928	2
0	2443	273.061137812341	3
0	2444	273.135459560621	2
0	2448	273.329306379255	3
0	2450	273.701241444648	4
0	2451	273.821813236069	3
0	2455	274.139677907834	4
0	2456	274.508166911517	3
0	2460	275.054227061298	4
0	2461	275.194520586965	3
0	2463	275.194520586965	2
0	2465	275.880874262413	1
0	2467	275.880874262413	0
0	2470	276.52230632083	1
0	2471	276.567227937861	0
0	2475	276.749258919351	1
0	2477	277.185408153994	2
0	2478	277.253581613309	1
0	2482	277.626952744219	2
0	2484	277.905152394597	3
0	2485	277.939935288757	2
0	2489	277.971013506474	3
0	2491	278.375585296284	4
0	2492	278.626288964205	3
0	2496	278.685330951553	4
0	2498	278.736925263064	5
0	2500	278.973187251857	6
0	2502	279.257782875507	7
0	2503	279.312642639653	6
0	2507	279.441384633052	7
0	2509	279.828172212518	8
0	2510	279.998996315101	7
0	2512	279.998996315101	6
0	2515	280.52964702361	7
0	2516	280.685349990549	6
0	2518	280.685349990549	5
0	2519	280.685349990549	4
0	2522	281.044540700263	5
0	2524	281.096720920016	6
0	2528	281.450203846477	7
0	2530	281.471085101757	8
0	2531	281.488316471051	7
0	2532	281.488316471051	6
0	2533	281.488316471051	5
0	2536	281.516593672915	6
0	2538	281.569766660886	7
0	2539	282.174670146499	6
0	2542	282.861023821947	5
0	2544	282.861023821947	4
0	2545	282.861023821947	3
0	2548	282.92100109959	4
0	2550	283.071005176417	5
0	2551	283.547377497395	4
0	2553	283.547377497395	3
0	2554	283.547377497395	2
0	2555	283.547377497395	1
0	2558	283.798253654717	2
0	2559	284.233731172843	1
0	2563	284.540079230999	2
0	2565	284.546838199854	3
0	2566	284.920084848291	2
0	2570	285.428033868374	3
0	2571	285.606438523739	2
0	2575	286.050337842821	3
0	2577	286.085047941993	4
0	2579	286.144035243706	5
0	2581	286.178925117581	6
0	2582	286.292792199187	5
0	2584	286.292792199187	4
0	2586	286.979145874635	3
0	2590	287.495339475118	4
0	2592	287.49812427085	5
0	2593	287.665499550083	4
0	2597	288.304063464045	5
0	2598	288.351853225531	4
0	2600	288.351853225531	3
0	2601	288.351853225531	2
0	2604	288.418697894024	3
0	2606	288.477972501739	4
0	2608	288.832462262083	5
0	2610	288.997174354166	6
0	2611	289.038206900979	5
0	2615	289.15672546201	6
0	2617	289.36521511518	7
0	2618	289.724560576427	6
0	2621	290.410914251875	5
0	2623	290.410914251875	4
0	2624	290.410914251875	3
0	2627	290.9187975675	4
0	2628	291.097267927323	3
0	2630	291.097267927323	2
0	2631	291.097267927323	1
0	2632	291.097267927323	0
0	2635	291.237171516305	1
0	2637	291.364520015058	2
0	2638	291.783621602771	1
0	2642	291.81109159004	2
0	2643	292.469975278219	1
0	2646	293.156328953667	0
0	2650	293.470598280965	1
0	2651	293.842682629115	0
0	2655	294.3733439953	1
0	2656	294.529036304563	0
0	2660	294.570067476691	1
0	2661	295.215389980011	0
0	2670	296.614965072451	1
0	2671	296.817579738159	0
0	2675	297.357940445629	1
0	2677	297.416653593351	2
0	2679	297.469472014561	3
0	2680	297.503933413607	2
0	2684	298.003167203047	3
0	2685	298.190287089055	2
0	2688	298.876640764503	1
0	2692	298.96202803017	2
0	2694	298.995436522476	3
0	2696	299.241630055942	4
0	2697	299.562994439951	3
0	2701	300.117953979754	4
0	2702	300.249348115399	3
0	2706	300.898729725713	4
0	2707	300.935701790847	3
0	2709	300.935701790847	2
0	2711	301.622055466295	1
0	2715	302.142381860098	2
0	2718	302.425021946797	1
0	2721	302.755291418075	2
0	2722	303.111375622245	1
0	2726	303.240224896389	2
0	2727	303.797729297693	1
0	2730	304.484082973141	0
0	2739	305.431613305068	1
0	2741	305.6954314716	2
0	2742	305.973140284804	1
0	2746	306.233738280646	2
0	2747	306.659493960252	1
0	2751	306.684259372326	2
0	2753	306.686644338156	3
0	2754	307.3458476357	2
0	2758	307.798651005054	3
0	2759	308.032201311148	2
0	2762	308.718554986596	1
0	2764	308.718554986596	0
0	2777	310.812766013992	1
0	2778	311.432780175044	0
0	2782	311.95764029392	1
0	2783	312.119133850492	0
0	2787	312.291142086351	1
0	2789	312.700809322968	2
0	2791	312.729349860583	3
0	2793	312.799502476225	4
0	2794	312.80548752594	3
0	2798	313.217356772588	4
0	2800	313.294400232096	5
0	2802	313.335929425494	6
0	2803	313.491841201388	5
0	2807	313.801587678076	6
0	2808	314.178194876836	5
0	2812	314.241973734399	6
0	2813	314.864548552284	5
0	2815	314.864548552284	4
0	2818	315.071827254606	5
0	2819	315.550902227732	4
0	2821	315.550902227732	3
0	2822	315.550902227732	2
0	2823	315.550902227732	1
0	2825	316.23725590318	0
0	2834	318.281110926435	1
0	2835	318.933511863184	0
0	2849	321.192684697533	1
0	2850	321.807477079571	0
0	2854	322.402662336925	1
0	2855	322.493830755019	0
0	2859	323.031028693818	1
0	2860	323.180184430467	0
0	2874	325.461961131747	1
0	2876	325.790716571058	2
0	2878	325.882958933928	3
0	2879	326.086004397575	2
0	2883	326.300141747608	3
0	2886	326.888970878077	2
0	2889	326.964482875527	3
0	2891	326.984966473944	4
0	2893	327.115965366954	5
0	2895	327.15303117957	6
0	2896	327.575324553525	5
0	2899	328.261678228973	4
0	2901	328.261678228973	3
0	2904	328.578303638888	4
0	2905	328.948031904421	3
0	2907	328.948031904421	2
0	2908	328.948031904421	1
0	2909	328.948031904421	0
0	2912	329.132483873478	1
0	2914	329.413956407396	2
0	2915	329.634385579869	1
0	2918	330.320739255317	0
0	2922	330.444515928008	1
0	2923	331.007092930765	0
0	2927	331.266029317993	1
0	2929	331.312180567844	2
0	2931	331.573635937736	3
0	2933	331.602949702238	4
0	2935	331.629999045526	5
0	2936	331.693446606213	4
0	2940	331.901947787916	5
0	2941	332.379800281661	4
0	2945	332.871230434972	5
0	2946	333.066153957109	4
0	2950	333.601620218468	5
0	2952	333.720141705963	6
0	2953	333.752507632557	5
0	2955	333.752507632557	4
0	2956	333.752507632557	3
0	2957	333.752507632557	2
0	2960	334.074916290891	3
0	2961	334.438861308005	2
0	2965	334.680001399177	3
0	2966	335.125214983453	2
0	2969	335.811568658901	1
0	2971	335.811568658901	0
0	2979	336.961948390421	1
0	2981	337.279703935043	2
0	2982	337.500158393756	1
0	2986	337.715687635387	2
0	2988	338.109016403904	3
0	2989	338.186512069204	2
0	2992	338.872865744652	1
0	2996	339.028286822845	2
0	2997	339.5592194201	1
0	3000	340.245573095548	0
0	3004	340.849953455208	1
0	3005	340.931926770996	0
0	3009	341.237553491747	1
0	3010	341.618280446444	0
0	3014	341.707650091424	1
0	3016	342.174939694033	2
0	3018	342.228318945791	3
0	3019	342.304634121892	2
0	3023	342.465781503462	3
0	3025	342.593048402047	4
0	3027	342.649983297804	5
0	3029	342.765255812581	6
0	3031	342.901112008342	7
0	3032	342.99098779734	6
0	3036	343.30225912176	7
0	3038	343.520734534588	8
0	3039	343.677341472788	7
0	3042	344.363695148236	6
0	3044	344.363695148236	5
0	3045	344.363695148236	4
0	3048	344.397874174443	5
0	3050	344.627132547579	6
0	3052	344.729682119957	7
0	3053	345.050048823684	6
0	3055	345.050048823684	5
0	3056	345.050048823684	4
0	3057	345.050048823684	3
0	3060	345.43881464488	4
0	3061	345.736402499132	3
0	3065	346.174824224524	4
0	3067	346.260898234601	5
0	3068	346.42275617458	4
0	3070	346.42275617458	3
0	3073	346.454553688151	4
0	3075	346.490543294227	5
0	3077	346.649007306747	6
0	3079	346.652848074592	7
0	3081	346.658678451878	8
0	3083	346.933910178291	9
0	3084	347.109109850028	8
0	3088	347.707164169181	9
0	3090	347.718825133198	10
0	3093	347.91207633053	9
0	3094	347.91207633053	8
0	3097	348.296089155539	9
0	3099	348.526047580993	10
0	3100	348.598430005978	9
0	3102	348.598430005978	8
0	3103	348.598430005978	7
0	3104	348.598430005978	6
0	3105	348.598430005978	5
0	3106	348.598430005978	4
0	3109	349.044248234814	5
0	3110	349.284783681426	4
0	3113	349.971137356874	3
0	3115	349.971137356874	2
0	3118	350.390503755317	3
0	3120	350.561885929583	4
0	3121	350.657491032322	3
0	3123	350.657491032322	2
0	3126	350.811991651754	3
0	3128	350.900277595325	4
0	3130	350.942548300939	5
0	3132	351.301621720964	6
0	3133	351.34384470777	5
0	3136	352.030198383218	4
0	3140	352.389087595802	5
0	3141	352.716552058666	4
0	3143	352.716552058666	3
0	3144	352.716552058666	2
0	3145	352.716552058666	1
0	3148	353.255916710075	2
0	3149	353.402905734114	1
0	3153	354.024184071594	2
0	3154	354.089259409562	1
0	3158	354.353819214439	2
0	3159	354.77561308501	1
0	3163	355.441895197552	2
0	3164	355.461966760458	1
0	3168	356.058301419351	2
0	3169	356.148320435906	1
0	3173	356.340932739032	2
0	3175	356.442308624466	3
0	3177	356.530477762657	4
0	3178	356.834674111354	3
0	3181	357.521027786802	2
0	3184	358.20738146225	1
0	3186	358.20738146225	0
0	3189	358.468858017759	1
0	3190	358.893735137698	0
0	3194	359.246217893591	1
0	3195	359.580088813146	0
0	3199	359.787727389534	1
0	3200	360.266442488594	0
0	3204	360.510153847366	1
0	3206	360.625374969391	2
0	3208	360.930169987708	3
0	3209	360.952796164042	2
0	3212	361.63914983949	1
0	3216	361.822512759052	2
0	3218	361.969499627953	3
0	3219	362.325503514938	2
0	3223	362.714070641398	3
0	3224	363.011857190386	2
0	3228	363.034055596542	3
0	3229	363.698210865834	2
0	3231	363.698210865834	1
0	3233	364.384564541282	0
0	3237	364.53221627818	1
0	3239	364.58732144418	2
0	3241	364.788816758429	3
0	3242	365.07091821673	2
0	3246	365.349405997364	3
0	3247	365.757271892178	2
0	3251	365.862604067571	3
0	3252	366.443625567626	2
0	3255	367.129979243074	1
0	3257	367.129979243074	0
0	3260	367.461990535038	1
0	3261	367.816332918522	0
0	3265	368.106636085311	1
0	3268	368.619299399024	0
0	3271	369.023994261487	1
0	3273	369.125002870911	2
0	3274	369.305653074472	1
0	3278	369.66525129492	2
0	3279	369.99200674992	1
0	3283	370.406539045763	2
0	3285	370.527203893392	3
0	3287	370.641334245149	4
0	3288	370.678360425368	3
0	3292	370.837908804172	4
0	3294	371.196100577116	5
0	3295	371.364714100816	4
0	3299	371.638832364351	5
0	3301	371.671364596242	6
0	3302	372.051067776264	5
0	3305	372.737421451712	4
0	3307	372.737421451712	3
0	3308	372.737421451712	2
0	3311	372.753314690015	3
0	3312	373.42377512716	2
0	3314	373.42377512716	1
0	3315	373.42377512716	0
0	3318	373.613733556175	1
0	3320	373.74103834774	2
0	3321	374.110128802608	1
0	3325	374.370884199501	2
0	3327	374.778558565408	3
0	3328	374.796482478056	2
0	3332	375.200474033509	3
0	3333	375.482836153504	2
0	3337	375.536917319311	3
0	3339	375.660946683207	4
0	3341	375.796862866276	5
0	3343	376.076832467307	6
0	3345	376.105388203573	7
0	3346	376.169189828952	6
0	3350	376.349638970846	7
0	3352	376.698886354897	8
0	3354	376.767484163925	9
0	3356	376.80045708595	10
0	3357	376.8555435044	9
0	3361	377.103856655089	10
0	3363	377.121773647409	11
0	3364	377.541897179848	10
0	3366	377.541897179848	9
0	3367	377.541897179848	8
0	3368	377.541897179848	7
0	3370	378.228250855296	6
0	3372	378.228250855296	5
0	3373	378.228250855296	4
0	3376	378.440102802651	5
0	3377	378.914604530744	4
0	3379	378.914604530744	3
0	3380	378.914604530744	2
0	3381	378.914604530744	1
0	3382	378.914604530744	0
0	3385	378.978875138112	1
0	3387	379.259017196468	2
0	3389	379.450264283436	3
0	3390	379.600958206192	2
0	3394	379.624228584518	3
0	3396	379.88722429596	4
0	3397	380.28731188164	3
0	3401	380.580758897511	4
0	3403	380.6968209391	5
0	3404	380.973665557088	4
0	3408	381.651953582869	5
0	3409	381.660019232536	4
0	3411	381.660019232536	3
0	3412	381.660019232536	2
0	3415	382.069712494374	3
0	3416	382.346372907984	2
0	3420	382.443721148963	3
0	3421	383.032726583432	2
0	3425	383.14761501683	3
0	3427	383.189899619628	4
0	3429	383.203587283596	5
0	3431	383.332952934842	6
0	3433	383.513814076586	7
0	3434	383.71908025888	6
0	3437	384.405433934328	5
0	3439	384.405433934328	4
0	3442	384.421357097099	5
0	3444	385.046466159539	6
0	3445	385.091787609776	5
0	3447	385.091787609776	4
0	3448	385.091787609776	3
0	3449	385.091787609776	2
0	3451	385.778141285224	1
0	3455	386.123441449639	2
0	3456	386.464494960672	1
0	3460	386.595389980829	2
0	3462	386.732154541261	3
0	3464	386.757312317156	4
0	3466	386.99158769635	5
0	3468	387.087461513548	6
0	3469	387.15084863612	5
0	3473	387.362239586897	6
0	3475	387.788786718776	7
0	3476	387.837202311568	6
0	3480	388.383472090152	7
0	3481	388.523555987016	6
0	3483	388.523555987016	5
0	3484	388.523555987016	4
0	3488	389.326522467518	3
0	3489	389.326522467518	2
0	3490	389.326522467518	1
0	3493	389.432458868141	2
0	3495	389.584562639729	3
0	3496	390.012876142966	2
0	3499	390.699229818414	1
0	3503	391.003452534399	2
0	3504	391.385583493862	1
0	3506	391.385583493862	0
0	3509	391.534497887381	1
0	3510	392.07193716931	0
0	3514	392.471478172023	1
0	3515	392.758290844758	0
0	3519	392.88120433285	1
0	3520	393.444644520206	0
0	3524	393.496126574435	1
0	3526	393.977877755981	2
0	3528	394.110485371151	3
0	3529	394.130998195654	2
0	3533	394.202291326807	3
0	3535	394.385349629099	4
0	3536	394.817351871102	3
0	3540	394.890423290337	4
0	3542	395.071586267808	5
0	3544	395.155711939074	6
0	3546	395.279111005892	7
0	3548	395.36447061177	8
0	3549	395.50370554655	7
0	3552	396.190059221998	6
0	3554	396.190059221998	5
0	3555	396.190059221998	4
0	3558	396.508641156263	5
0	3559	396.876412897446	4
0	3561	396.876412897446	3
0	3562	396.876412897446	2
0	3565	396.907741363946	3
0	3566	397.562766572894	2
0	3568	397.562766572894	1
0	3571	397.868374669428	2
0	3573	397.943868900234	3
0	3575	398.184870925054	4
0	3576	398.249120248342	3
0	3579	398.93547392379	2
0	3583	399.331997900044	3
0	3584	399.621827599238	2
0	3588	399.755637876311	3
0	3590	399.923963895751	4
0	3591	400.308181274686	3
0	3593	400.308181274686	2
0	3596	400.491234668042	3
0	3598	400.564586066765	4
0	3599	400.994534950134	3
0	3602	401.680888625582	2
0	3604	401.680888625582	1
0	3607	402.124602837745	2
0	3609	402.32891952178	3
0	3610	402.36724230103	2
0	3612	402.36724230103	1
0	3615	402.585466805217	2
0	3617	402.762654760325	3
0	3618	403.053595976478	2
0	3622	403.397124291761	3
0	3623	403.739949651926	2
0	3627	403.991688584933	3
0	3629	404.2447758802	4
0	3631	404.272119662905	5
0	3633	404.354583145273	6
0	3634	404.426303327374	5
0	3638	404.599174968419	6
0	3639	405.112657002822	5
0	3643	405.113766133544	6
0	3645	405.649326033517	7
0	3646	405.79901067827	6
0	3648	405.79901067827	5
0	3651	406.12603074736	6
0	3653	406.4759379781	7
0	3654	406.485364353718	6
0	3656	406.485364353718	5
0	3657	406.485364353718	4
0	3658	406.485364353718	3
0	3661	406.803939432597	4
0	3662	407.171718029166	3
0	3665	407.858071704614	2
0	3667	407.858071704614	1
0	3669	408.544425380062	0
0	3676	409.193455647624	1
0	3677	409.672487118217	0
0	3683	410.445349528518	1
0	3684	410.475453598719	0
0	3692	412.496352535627	1
0	3693	412.69021215753	0
0	3697	412.755599546104	1
0	3699	412.878644715093	2
0	3700	413.376565832978	1
0	3704	413.510100808246	2
0	3706	413.732835330409	3
0	3707	414.062919508426	2
0	3710	414.749273183874	1
0	3713	415.435626859322	0
0	3722	416.233974594117	1
0	3723	416.893819056004	0
0	3727	417.022616799277	1
0	3729	417.223098861909	2
0	3731	417.560526521827	3
0	3733	417.57982300801	4
0	3734	417.580172731452	3
0	3738	417.906615238028	4
0	3740	418.079683137099	5
0	3741	418.2665264069	4
0	3745	418.665207117065	5
0	3746	418.952880082348	4
0	3749	419.639233757796	3
0	3751	419.639233757796	2
0	3752	419.639233757796	1
0	3755	420.296460617992	2
0	3756	420.325587433244	1
0	3760	420.597193274418	2
0	3762	420.636475878686	3
0	3763	421.011941108692	2
0	3767	421.123454301421	3
0	3769	421.337825059542	4
0	3770	421.69829478414	3
0	3774	422.027968992118	4
0	3775	422.384648459588	3
0	3777	422.384648459588	2
0	3780	422.91791895383	3
0	3781	423.071002135036	2
0	3783	423.071002135036	1
0	3786	423.447268957549	2
0	3788	423.708841500088	3
0	3789	423.757355810484	2
0	3793	423.823554478593	3
0	3794	424.443709485932	2
0	3798	424.544448578661	3
0	3800	424.697952990192	4
0	3802	425.037263105931	5
0	3803	425.13006316138	4
0	3806	425.816416836828	3
0	3808	425.816416836828	2
0	3811	425.837201843242	3
0	3813	426.109646620718	4
0	3815	426.247912545151	5
0	3816	426.502770512276	4
0	3818	426.502770512276	3
0	3820	427.189124187724	2
0	3824	427.550355499971	3
0	3825	427.875477863172	2
0	3827	427.875477863172	1
0	3830	428.188826957641	2
0	3832	428.23666914462	3
0	3833	428.56183153862	2
0	3837	428.578261314547	3
0	3839	428.612537640068	4
0	3841	428.808704425093	5
0	3842	429.248185214068	4
0	3846	429.676788964491	5
0	3848	429.781430656591	6
0	3849	429.934538889516	5
0	3853	430.097847182609	6
0	3855	430.32822809215	7
0	3856	430.620892564964	6
0	3858	430.620892564964	5
0	3859	430.620892564964	4
0	3860	430.620892564964	3
0	3863	430.67398842343	4
0	3865	430.73414707061	5
0	3867	430.944978547018	6
0	3869	431.284350339434	7
0	3870	431.307246240412	6
0	3874	431.359234460861	7
0	3877	432.110212720914	6
0	3878	432.110212720914	5
0	3879	432.110212720914	4
0	3882	432.1560096468	5
0	3884	432.266905459683	6
0	3886	432.508812354203	7
0	3887	432.796566396362	6
0	3889	432.796566396362	5
0	3890	432.796566396362	4
0	3893	432.830179402925	5
0	3894	433.48292007181	4
0	3896	433.48292007181	3
0	3898	434.169273747258	2
0	3900	434.169273747258	1
0	3903	434.21709704698	2
0	3905	434.567800690223	3
0	3906	434.855627422706	2
0	3908	434.855627422706	1
0	3911	434.875095796285	2
0	3912	435.541981098154	1
0	3916	435.750114933709	2
0	3918	435.860463940287	3
0	3919	436.228334773602	2
0	3923	436.717625476698	3
0	3925	436.785445980281	4
0	3926	436.91468844905	3
0	3930	437.506704139482	4
0	3931	437.601042124498	3
0	3933	437.601042124498	2
0	3935	438.287395799946	1
0	3938	438.973749475394	0
0	3942	439.050128966803	1
0	3944	439.509944106145	2
0	3945	439.660103150842	1
0	3949	439.807344221388	2
0	3951	440.220609957799	3
0	3952	440.34645682629	2
0	3956	440.599895990197	3
0	3958	440.925138635806	4
0	3959	441.032810501738	3
0	3963	441.440578216868	4
0	3964	441.719164177186	3
0	3968	441.861800483506	4
0	3970	442.072356551825	5
0	3971	442.405517852634	4
0	3973	442.405517852634	3
0	3975	443.091871528082	2
0	3979	443.154460964326	3
0	3980	443.77822520353	2
0	3982	443.77822520353	1
0	3985	443.826554663102	2
0	3987	444.176966520589	3
0	3988	444.464578878978	2
0	3992	444.543668128751	3
0	3994	444.820633579357	4
0	3996	444.955801610148	5
0	3997	445.150932554426	4
0	4001	445.16452331914	5
0	4003	445.598316856847	6
0	4004	445.837286229874	5
0	4008	445.840026919664	6
0	4010	445.849997413621	7
0	4011	446.523639905322	6
0	4013	446.523639905322	5
0	4016	446.67845784886	6
0	4018	446.987277024054	7
0	4019	447.20999358077	6
0	4021	447.20999358077	5
0	4022	447.20999358077	4
0	4025	447.281762241746	5
0	4027	447.600865772814	6
0	4029	447.790183345364	7
0	4030	447.896347256218	6
0	4032	447.896347256218	5
0	4033	447.896347256218	4
0	4036	448.014630802873	5
0	4038	448.096867961212	6
0	4040	448.238483615571	7
0	4041	448.582700931666	6
0	4045	448.781614949544	7
0	4046	449.269054607114	6
0	4048	449.269054607114	5
0	4051	449.806937406455	6
0	4052	449.955408282562	5
0	4054	449.955408282562	4
0	4055	449.955408282562	3
0	4056	449.955408282562	2
0	4059	449.956846323748	3
0	4061	450.361980983902	4
0	4062	450.64176195801	3
0	4064	450.64176195801	2
0	4067	451.213630541256	3
0	4068	451.328115633458	2
0	4072	451.443217539072	3
0	4074	451.769036334198	4
0	4075	452.014469308906	3
0	4079	452.493275626771	4
0	4081	452.543761582302	5
0	4084	452.817435789408	4
0	4086	453.503789464856	3
0	4088	453.503789464856	2
0	4089	453.503789464856	1
0	4092	453.809951013787	2
0	4093	454.190143140304	1
0	4097	454.511967727799	2
0	4099	454.592420733465	3
0	4100	454.876496815752	2
0	4104	455.012673720895	3
0	4106	455.404451665935	4
0	4107	455.5628504912	3
0	4111	455.771546671794	4
0	4113	455.861267183648	5
0	4114	456.249204166648	4
0	4118	456.904878055123	5
0	4119	456.935557842096	4
0	4121	456.935557842096	3
0	4124	456.957778547887	4
0	4126	457.130135364155	5
0	4128	457.281838132214	6
0	4130	457.464301086187	7
0	4132	457.544668182483	8
0	4133	457.621911517544	7
0	4135	457.621911517544	6
0	4136	457.621911517544	5
0	4139	457.720888372019	6
0	4140	458.308265192992	5
0	4144	458.330446389661	6
0	4146	458.54038510486	7
0	4148	458.831813527393	8
0	4149	458.99461886844	7
0	4151	458.99461886844	6
0	4154	459.023917968676	7
0	4156	459.298079664641	8
0	4158	459.399361959011	9
0	4159	459.680972543888	8
0	4161	459.680972543888	7
0	4162	459.680972543888	6
0	4163	459.680972543888	5
0	4166	459.915236975181	6
0	4167	460.367326219336	5
0	4169	460.367326219336	4
0	4172	460.953010144842	5
0	4173	461.053679894784	4
0	4175	461.053679894784	3
0	4176	461.053679894784	2
0	4178	461.740033570232	1
0	4180	461.740033570232	0
0	4183	461.776244438521	1
0	4185	462.268498147891	2
0	4186	462.42638724568	1
0	4189	463.112740921128	0
0	4193	463.289682984814	1
0	4195	463.551362995678	2
0	4197	463.685032053384	3
0	4198	463.799094596576	2
0	4202	464.082774028295	3
0	4203	464.485448272024	2
0	4206	465.171801947472	1
0	4210	465.720352332142	2
0	4211	465.85815562292	1
0	4213	465.85815562292	0
0	4216	466.182440224142	1
0	4218	466.199926236573	2
0	4219	466.544509298368	1
0	4222	467.230862973816	0
0	4226	467.303840512879	1
0	4228	467.392914980327	2
0	4230	467.875721494488	3
0	4231	467.917216649264	2
0	4235	468.344840052885	3
0	4237	468.535628771777	4
0	4239	468.591074386922	5
0	4240	468.603570324712	4
0	4243	469.28992400016	3
0	4247	469.46940527048	4
0	4249	469.835458964069	5
0	4250	469.976277675608	4
0	4254	470.046501126363	5
0	4256	470.204627214293	6
0	4258	470.330231429941	7
0	4260	470.485778916448	8
0	4261	470.662631351056	7
0	4263	470.662631351056	6
0	4264	470.662631351056	5
0	4266	471.348985026504	4
0	4269	472.035338701952	3
0	4271	472.035338701952	2
0	4272	472.035338701952	1
0	4275	472.139470867304	2
0	4277	472.617195508731	3
0	4278	472.7216923774	2
0	4280	472.7216923774	1
0	4284	473.524658857902	0
0	4292	474.55143231992	1
0	4294	474.629462513167	2
0	4295	474.991544402248	1
0	4299	475.106634358471	2
0	4301	475.426319086986	3
0	4302	475.677898077696	2
0	4306	476.183429457098	3
0	4307	476.364251753144	2
0	4311	476.536742657931	3
0	4313	476.735641022038	4
0	4314	477.050605428592	3
0	4318	477.222943097411	4
0	4320	477.319675299571	5
0	4321	477.73695910404	4
0	4325	478.15348591458	5
0	4326	478.423312779488	4
0	4328	478.423312779488	3
0	4330	479.109666454936	2
0	4332	479.109666454936	1
0	4333	479.109666454936	0
0	4336	479.627660053207	1
0	4338	479.73262115394	2
0	4340	479.79406647723	3
0	4341	479.796020130384	2
0	4344	480.482373805832	1
0	4348	480.617709393193	2
0	4350	480.850492677906	3
0	4351	481.16872748128	2
0	4355	481.589461799326	3
0	4356	481.855081156728	2
0	4359	482.541434832176	1
0	4363	482.622671463082	2
0	4364	483.227788507624	1
0	4368	483.471099868246	2
0	4369	483.914142183072	1
0	4373	484.541969107279	2
0	4374	484.60049585852	1
0	4378	484.663920291271	2
0	4380	484.776440360903	3
0	4382	484.795008446844	4
0	4383	485.286849533968	3
0	4387	485.726272582387	4
0	4389	485.93443072459	5
0	4391	485.963556041888	6
0	4392	485.973203209416	5
0	4395	486.659556884864	4
0	4397	486.659556884864	3
0	4398	486.659556884864	2
0	4401	486.743797498082	3
0	4403	487.247890696839	4
0	4404	487.345910560312	3
0	4408	487.825965425201	4
0	4409	488.03226423576	3
0	4411	488.03226423576	2
0	4414	488.630432565274	3
0	4415	488.718617911208	2
0	4419	488.79166794437	3
0	4420	489.404971586656	2
0	4423	490.091325262104	1
0	4426	490.777678937552	0
0	4433	491.463957131316	1
0	4434	491.588926176556	0
0	4443	492.835117641376	1
0	4445	492.837656563174	2
0	4447	492.846658009522	3
0	4448	493.319818645865	2
0	4452	493.939722266824	3
0	4453	494.006172321313	2
0	4457	494.323881744124	3
0	4461	494.808430949166	4
0	4462	494.809138801815	3
0	4463	494.809138801815	2
0	4465	495.495492477263	1
0	4469	495.710277636966	2
0	4470	496.181846152711	1
0	4474	496.209309347998	2
0	4476	496.497950929735	3
0	4477	496.868199828159	2
0	4480	497.554553503607	1
0	4483	498.240907179055	0
0	4490	498.832455257861	1
0	4491	498.976454547391	0
0	4500	500.152590988737	1
0	4502	500.270584174761	2
0	4504	500.421230929694	3
0	4505	500.747860136526	2
0	4508	501.434213811974	1
0	4512	501.863935274559	2
0	4513	502.120567487422	1
0	4517	502.300995896943	2
0	4519	502.320348955324	3
0	4520	502.80692116287	2
0	4523	503.493274838318	1
0	4526	504.179628513766	0
0	4533	504.532242111137	1
0	4535	504.558978839177	2
0	4537	504.577582680243	3
0	4538	505.03685832963	2
0	4542	505.302099022731	3
0	4544	505.422464770865	4
0	4545	505.723212005078	3
0	4549	505.80997863984	4
0	4550	506.409565680526	3
0	4552	506.409565680526	2
0	4555	506.66351471741	3
0	4557	506.805889914973	4
0	4559	507.039898413477	5
0	4560	507.095919355974	4
0	4564	507.15356030366	5
0	4566	507.187073535331	6
0	4567	507.782273031422	5
0	4569	507.782273031422	4
0	4571	508.46862670687	3
0	4575	509.023680544291	4
0	4576	509.154980382318	3
0	4578	509.154980382318	2
0	4579	509.154980382318	1
0	4580	509.154980382318	0
0	4583	509.756279060623	1
0	4585	509.836866729978	2
0	4586	509.841334057766	1
0	4589	510.527687733214	0
0	4593	510.728907845051	1
0	4595	510.955984847859	2
0	4597	510.979663684002	3
0	4599	511.012727617768	4
0	4600	511.214041408662	3
0	4603	511.90039508411	2
0	4607	512.109899861514	3
0	4609	512.492710753698	4
0	4610	512.586748759558	3
0	4614	512.599726547033	4
0	4615	513.273102435006	3
0	4617	513.273102435006	2
0	4619	513.959456110454	1
0	4623	514.09519513494	2
0	4624	514.645809785902	1
0	4626	514.645809785902	0
0	4629	514.953582907991	1
0	4630	515.33216346135	0
0	4640	517.004224828172	1
0	4641	517.217600503827	0
0	4645	517.499106415978	1
0	4646	517.903954179275	0
0	4650	518.525852627019	1
0	4651	518.590307854723	0
0	4655	519.266318850389	1
0	4656	519.276661530171	0
0	4665	520.681587424461	1
0	4666	520.753810222425	0
0	4670	521.176702880063	1
0	4672	521.202547094067	2
0	4673	521.440163897873	1
0	4677	521.65710558589	2
0	4679	521.93731410087	3
0	4680	522.126517573321	2
0	4684	522.432934174352	3
0	4685	522.812871248769	2
0	4689	522.9258094588	3
0	4690	523.499224924217	2
0	4693	524.185578599665	1
0	4695	524.185578599665	0
0	4698	524.212836892143	1
0	4700	524.749971826243	2
0	4701	524.871932275113	1
0	4705	524.884348090354	2
0	4707	525.213059872295	3
0	4709	525.220998743861	4
0	4710	525.558285950561	3
0	4714	525.848517471067	4
0	4715	526.244639626009	3
0	4719	526.351356632453	4
0	4721	526.726257840589	5
0	4723	526.80846461787	6
0	4724	526.930993301457	5
0	4728	527.530556389348	6
0	4730	527.576882839832	7
0	4731	527.617346976905	6
0	4733	527.617346976905	5
0	4734	527.617346976905	4
0	4737	527.828726745329	5
0	4739	527.946960554873	6
0	4740	528.303700652353	5
0	4744	528.560562787565	6
0	4746	528.93134876305	7
0	4747	528.990054327801	6
0	4749	528.990054327801	5
0	4752	529.369255857168	6
0	4753	529.676408003249	5
0	4755	529.676408003249	4
0	4756	529.676408003249	3
0	4757	529.676408003249	2
0	4759	530.362761678697	1
0	4762	531.049115354145	0
0	4776	533.535019582469	1
0	4778	533.806392092147	2
0	4779	533.9856825487	1
0	4782	534.672036224148	0
0	4791	536.130430938761	1
0	4792	536.498515600485	0
0	4796	536.884740865675	1
0	4797	537.184869275933	0
0	4806	538.328678972415	1
0	4808	538.360241639984	2
0	4810	538.492923297749	3
0	4812	538.598668910454	4
0	4814	538.713265742488	5
0	4817	538.837615238407	4
0	4820	538.98674537472	5
0	4821	539.523968913855	4
0	4825	539.604036711468	5
0	4826	540.210322589303	4
0	4829	540.896676264751	3
0	4831	540.896676264751	2
0	4832	540.896676264751	1
0	4833	540.896676264751	0
0	4836	541.218875266125	1
0	4837	541.583029940199	0
0	4846	542.993238880146	1
0	4847	543.237927953279	0
0	4851	543.257142833692	1
0	4853	543.299967582518	2
0	4855	543.544953579023	3
0	4856	543.924281628727	2
0	4860	544.392873296696	3
0	4861	544.610635304175	2
0	4864	545.296988979623	1
0	4866	545.296988979623	0
0	4869	545.574455306487	1
0	4871	545.866501930908	2
0	4872	545.983342655071	1
0	4876	546.15406041102	2
0	4878	546.607454716456	3
0	4879	546.669696330519	2
0	4882	547.356050005967	1
0	4886	547.982552518137	2
0	4887	548.042403681415	1
0	4891	548.442339158225	2
0	4893	548.618264914521	3
0	4895	548.700635663066	4
0	4896	548.728757356863	3
0	4900	548.842651337321	4
0	4901	549.415111032311	3
0	4905	549.684471872804	4
0	4907	549.749969481312	5
0	4909	549.867675341713	6
0	4911	550.074672728334	7
0	4912	550.101464707759	6
0	4916	550.117431487257	7
0	4918	550.604965764629	8
0	4920	550.6668589163	9
0	4921	550.787818383207	8
0	4923	550.787818383207	7
0	4924	550.787818383207	6
0	4927	550.914473259303	7
0	4928	551.474172058655	6
0	4930	551.474172058655	5
0	4932	552.160525734103	4
0	4934	552.160525734103	3
0	4935	552.160525734103	2
0	4937	552.846879409551	1
0	4939	552.846879409551	0
0	4950	554.033576229	1
0	4952	554.087394291286	2
0	4954	554.176359435539	3
0	4956	554.430692175037	4
0	4957	554.460615537595	3
0	4960	555.146969213043	2
0	4963	555.833322888491	1
0	4966	556.519676563939	0
0	4973	557.182712977855	1
0	4975	557.330654534646	2
0	4976	557.625229915078	1
0	4979	558.311583590526	0
0	4983	558.610078122501	1
0	4984	558.997937265974	0
0	4988	559.162803893077	1
0	4990	559.34085172817	2
0	4991	559.684290941422	1
0	4995	559.833537604817	2
0	4997	560.055752591608	3
0	5000	560.487257421924	2
0	5003	560.492534650532	3
0	5005	560.575528469081	4
0	5007	561.015329069119	5
0	5009	561.064234163614	6
0	5010	561.173611097372	5
0	5014	561.503513274444	6
0	5015	561.85996477282	5
0	5017	561.85996477282	4
0	5019	562.546318448268	3
0	5021	562.546318448268	2
0	5024	562.885167237845	3
0	5025	563.232672123716	2
0	5027	563.232672123716	1
0	5028	563.232672123716	0
0	5031	563.430877759651	1
0	5033	563.451701495012	2
0	5035	563.496603796284	3
0	5036	563.919025799164	2
0	5040	564.21170802279	3
0	5041	564.605379474612	2
0	5045	564.789292902829	3
0	5046	565.29173315006	2
0	5048	565.29173315006	1
0	5051	565.530877045286	2
0	5052	565.978086825508	1
0	5055	566.664440500956	0
0	5059	566.872814999317	1
0	5061	567.00233864021	2
0	5063	567.094277750061	3
0	5065	567.218555811779	4
0	5066	567.350794176404	3
0	5070	567.770489027897	4
0	5072	567.956665939983	5
0	5073	568.037147851852	4
0	5076	568.7235015273	3
0	5079	569.409855202748	2
0	5081	569.409855202748	1
0	5084	569.973637559959	2
0	5086	569.998773242597	3
0	5087	570.096208878196	2
0	5089	570.096208878196	1
0	5092	570.695669407859	2
0	5093	570.782562553644	1
0	5097	571.087481038561	2
0	5099	571.404783990449	3
0	5100	571.468916229092	2
0	5104	571.687912950138	3
0	5105	572.15526990454	2
0	5109	572.370443640006	3
0	5111	572.592744037508	4
0	5112	572.841623579988	3
0	5116	573.115791919889	4
0	5117	573.527977255436	3
0	5119	573.527977255436	2
0	5122	574.05369567323	3
0	5123	574.214330930884	2
0	5127	574.43899644239	3
0	5128	574.900684606332	2
0	5130	574.900684606332	1
0	5133	575.028203154028	2
0	5134	575.58703828178	1
0	5137	576.273391957228	0
0	5141	576.408309097127	1
0	5143	576.743843147361	2
0	5145	576.84549097046	3
0	5147	576.895479927623	4
0	5148	576.959745632676	3
0	5152	576.982555884366	4
0	5153	577.646099308124	3
0	5157	578.062685759589	4
0	5158	578.332452983572	3
0	5162	578.827980093802	4
0	5164	578.857221262776	5
0	5165	579.01880665902	4
0	5167	579.01880665902	3
0	5168	579.01880665902	2
0	5171	579.443323958522	3
0	5173	579.615065263126	4
0	5174	579.705160334468	3
0	5178	579.817350446568	4
0	5179	580.391514009916	3
0	5184	581.194480490418	2
0	5185	581.194480490418	1
0	5187	581.880834165866	0
0	5194	581.988403919132	1
0	5196	582.60119407924	2
0	5197	582.629321322019	1
0	5201	582.905860381584	2
0	5203	583.051641656477	3
0	5205	583.237240474084	4
0	5206	583.315674997467	3
0	5210	583.342847888938	4
0	5211	584.002028672915	3
0	5214	584.688382348363	2
0	5218	585.154821804499	3
0	5219	585.374736023811	2
0	5221	585.374736023811	1
0	5222	585.374736023811	0
0	5225	585.68171995957	1
0	5227	585.786141619231	2
0	5229	585.928752612635	3
0	5231	585.947391138713	4
0	5232	586.061089699259	3
0	5236	586.275078139828	4
0	5238	586.553873112005	5
0	5240	586.686262967971	6
0	5241	586.747443374707	5
0	5245	586.888815236512	6
0	5246	587.433797050155	5
0	5250	587.505522667039	6
0	5252	587.851476680404	7
0	5253	588.120150725603	6
0	5255	588.120150725603	5
0	5256	588.120150725603	4
0	5259	588.137764368691	5
0	5261	588.358683792696	6
0	5262	588.806504401051	5
0	5264	588.806504401051	4
0	5265	588.806504401051	3
0	5267	589.492858076499	2
0	5271	589.499101425096	3
0	5273	589.74023055566	4
0	5275	589.974374096746	5
0	5276	590.179211751947	4
0	5278	590.179211751947	3
0	5279	590.179211751947	2
0	5281	590.865565427395	1
0	5285	590.96560244991	2
0	5287	591.143997357546	3
0	5289	591.338236933302	4
0	5290	591.551919102843	3
0	5294	591.618919868065	4
0	5296	591.629640409543	5
0	5297	592.238272778291	4
0	5301	592.725669035858	5
0	5302	592.924626453739	4
0	5304	592.924626453739	3
0	5307	593.116178333735	4
0	5309	593.202810410599	5
0	5310	593.610980129187	4
0	5312	593.610980129187	3
0	5313	593.610980129187	2
0	5316	593.700354610063	3
0	5318	593.921629291567	4
0	5320	594.011396288287	5
0	5322	594.208477413853	6
0	5323	594.297333804635	5
0	5327	594.371918388543	6
0	5329	594.676897907511	7
0	5331	594.678388254769	8
0	5332	594.983687480083	7
0	5334	594.983687480083	6
0	5337	595.629839282797	7
0	5338	595.670041155531	6
0	5340	595.670041155531	5
0	5343	595.827686699401	6
0	5345	596.177391579948	7
0	5346	596.356394830979	6
0	5348	596.356394830979	5
0	5349	596.356394830979	4
0	5352	596.78733961346	5
0	5353	597.042748506427	4
0	5355	597.042748506427	3
0	5357	597.729102181875	2
0	5359	597.729102181875	1
0	5362	598.384151938138	2
0	5363	598.415455857323	1
0	5367	598.570281788483	2
0	5368	599.101809532771	1
0	5372	599.223958899474	2
0	5374	599.364595306145	3
0	5376	599.529264103907	4
0	5377	599.788163208219	3
0	5380	600.474516883667	2
0	5384	600.617689458025	3
0	5386	600.953194680053	4
0	5387	601.160870559115	3
0	5389	601.160870559115	2
0	5392	601.174900740318	3
0	5394	601.19888761418	4
0	5397	601.963837039617	3
0	5400	602.071715298934	4
0	5402	602.429555008569	5
0	5403	602.650190715065	4
0	5407	602.797106155787	5
0	5409	603.183234650857	6
0	5410	603.336544390513	5
0	5412	603.336544390513	4
0	5413	603.336544390513	3
0	5416	603.372120763435	4
0	5418	603.540362769136	5
0	5420	603.549581675797	6
0	5422	603.930590279581	7
0	5424	603.932151283272	8
0	5425	604.022898065961	7
0	5428	604.709251741409	6
0	5430	604.709251741409	5
0	5432	605.395605416857	4
0	5434	605.395605416857	3
0	5435	605.395605416857	2
0	5436	605.395605416857	1
0	5439	606.050643170424	2
0	5440	606.081959092305	1
0	5442	606.081959092305	0
0	5450	608.449200933034	1
0	5452	608.481937023322	2
0	5454	608.493587581484	3
0	5456	608.545912250932	4
0	5458	608.580688492752	5
0	5459	608.594637651686	4
0	5463	608.853566113062	5
0	5464	609.280991327134	4
0	5468	609.320908687819	5
0	5469	609.967345002582	4
0	5473	610.269896621665	5
0	5475	610.308102962518	6
0	5476	610.65369867803	5
0	5478	610.65369867803	4
0	5479	610.65369867803	3
0	5480	610.65369867803	2
0	5483	610.855263063807	3
0	5484	611.340052353478	2
0	5487	612.026406028926	1
0	5489	612.026406028926	0
0	5502	614.327659906412	1
0	5503	614.438881241971	0
0	5507	614.498261039819	1
0	5508	615.125234917419	0
0	5512	615.461280998132	1
0	5513	615.811588592867	0
0	5522	616.888075247086	1
0	5524	617.023609159754	2
0	5525	617.258030192396	1
0	5529	617.426877293485	2
0	5530	617.944383867844	1
0	5534	618.289074655813	2
0	5536	618.605801528087	3
0	5537	618.630737543292	2
0	5540	619.31709121874	1
0	5543	620.003444894188	0
0	5547	620.222751756073	1
0	5549	620.261796351497	2
0	5551	620.459966097462	3
0	5553	620.667761031814	4
0	5554	620.689798569636	3
0	5558	620.737755247968	4
0	5560	621.028969907574	5
0	5562	621.07457411743	6
0	5564	621.110509527246	7
0	5565	621.376152245084	6
0	5569	621.499641798384	7
0	5570	622.062505920532	6
0	5574	622.431810273407	7
0	5575	622.74885959598	6
0	5577	622.74885959598	5
0	5578	622.74885959598	4
0	5579	622.74885959598	3
0	5582	623.117447471477	4
0	5583	623.435213271428	3
0	5585	623.435213271428	2
0	5586	623.435213271428	1
0	5589	623.689154538336	2
0	5591	623.89691194112	3
0	5593	623.965016827105	4
0	5596	624.23817975193	3
0	5598	624.924533427378	2
0	5601	625.610887102826	1
0	5604	626.297240778274	0
0	5621	629.007262375639	1
0	5623	629.190291176324	2
0	5624	629.352507770708	1
0	5628	629.737679680975	2
0	5629	630.038861446156	1
0	5632	630.725215121604	0
0	5641	631.880420634057	1
0	5643	632.15280160744	2
0	5645	632.298677575996	3
0	5646	632.332862705248	2
0	5650	632.604278462026	3
0	5651	633.019216380696	2
0	5655	633.158506143881	3
0	5656	633.705570056144	2
0	5660	634.175209897071	3
0	5661	634.391923731592	2
0	5663	634.391923731592	1
0	5666	634.830206672805	2
0	5667	635.07827740704	1
0	5670	635.764631082488	0
0	5679	637.876260801022	1
0	5680	637.961472667044	0
0	5684	638.557811609808	1
0	5685	638.647826342492	0
0	5699	641.06042968883	1
0	5701	641.107766960775	2
0	5702	641.31077266424	1
0	5706	641.456719247229	2
0	5708	641.73409630945	3
0	5710	641.848323558461	4
0	5712	641.848760389455	5
0	5713	641.997126339688	4
0	5716	642.683480015136	3
0	5720	643.041184016706	4
0	5722	643.096933344189	5
0	5724	643.306766541088	6
0	5725	643.369833690584	5
0	5728	644.056187366032	4
0	5730	644.056187366032	3
0	5731	644.056187366032	2
0	5734	644.071658727161	3
0	5736	644.381202599708	4
0	5738	644.397585067497	5
0	5740	644.477903381755	6
0	5742	644.660843869338	7
0	5744	644.669937715009	8
0	5745	644.74254104148	7
0	5749	644.842724946407	8
0	5750	645.428894716928	7
0	5752	645.428894716928	6
0	5755	645.964557071707	7
0	5756	646.115248392376	6
0	5758	646.115248392376	5
0	5761	646.758913226648	6
0	5762	646.801602067824	5
0	5764	646.801602067824	4
0	5765	646.801602067824	3
0	5766	646.801602067824	2
0	5767	646.801602067824	1
0	5770	646.847978576054	2
0	5772	647.073235590048	3
0	5774	647.316076022018	4
0	5777	647.604568548326	3
0	5779	648.290922223774	2
0	5783	648.335554399368	3
0	5785	648.498373589968	4
0	5786	648.977275899222	3
0	5788	648.977275899222	2
0	5791	649.06866438113	3
0	5792	649.66362957467	2
0	5795	650.349983250118	1
0	5797	650.349983250118	0
0	5805	652.660144427606	1
0	5807	652.679750767656	2
0	5808	653.058143315684	1
0	5812	653.415802618708	2
0	5814	653.672263033247	3
0	5815	653.744496991132	2
0	5819	654.072939290737	3
0	5821	654.168147129697	4
0	5822	654.43085066658	3
0	5826	654.451154873507	4
0	5828	654.812840243558	5
0	5829	655.117204342028	4
0	5833	655.510985082455	5
0	5834	655.803558017476	4
0	5836	655.803558017476	3
0	5838	656.489911692924	2
0	5840	656.489911692924	1
0	5843	656.769569092373	2
0	5845	656.810864219752	3
0	5846	657.176265368372	2
0	5849	657.86261904382	1
0	5853	657.873198880396	2
0	5855	657.95497045653	3
0	5857	658.105743112039	4
0	5859	658.131379081758	5
0	5861	658.30950458993	6
0	5863	658.417220065287	7
0	5864	658.548972719268	6
0	5866	658.548972719268	5
0	5868	659.235326394716	4
0	5872	659.45995978669	5
0	5874	659.626888686485	6
0	5875	659.921680070164	5
0	5877	659.921680070164	4
0	5878	659.921680070164	3
0	5881	660.084092403518	4
0	5883	660.600960676743	5
0	5884	660.608033745612	4
0	5886	660.608033745612	3
0	5888	661.29438742106	2
0	5892	661.555774528035	3
0	5894	661.749397074693	4
0	5896	661.82706574415	5
0	5897	661.980741096508	4
0	5899	661.980741096508	3
0	5902	662.034158293659	4
0	5904	662.326925141809	5
0	5906	662.65260557574	6
0	5907	662.667094771956	5
0	5911	662.849523047455	6
0	5912	663.353448447404	5
0	5916	663.527345091182	6
0	5918	663.897742503038	7
0	5919	664.039802122852	6
0	5921	664.039802122852	5
0	5922	664.039802122852	4
0	5925	664.308300359887	5
0	5927	664.48272047813	6
0	5928	664.7261557983	5
0	5930	664.7261557983	4
0	5931	664.7261557983	3
0	5934	664.850757078706	4
0	5935	665.412509473748	3
0	5938	666.098863149196	2
0	5940	666.098863149196	1
0	5942	666.785216824644	0
0	5949	667.282716557574	1
0	5950	667.749545541431	0
0	5959	668.593360997098	1
0	5960	669.277770137444	0
0	5970	670.641332151124	1
0	5972	670.960293111465	2
0	5973	671.115047454787	1
0	5976	671.801401130235	0
0	5980	672.225786241935	1
0	5982	672.374417824361	2
0	5983	672.487754805683	1
0	5987	672.626447020045	2
0	5988	673.174108481131	1
0	5992	673.494028716153	2
0	5993	673.860462156579	1
0	5997	674.342836331715	2
0	5998	674.546815832027	1
0	6002	674.791567338895	2
0	6004	674.931894825338	3
0	6005	675.233169507475	2
0	6008	675.919523182923	1
0	6012	676.342552676378	2
0	6013	676.605876858371	1
0	6017	677.043362108249	2
0	6018	677.292230533819	1
0	6022	677.773919673524	2
0	6024	677.907090119431	3
0	6025	677.978584209267	2
0	6029	678.15039196315	3
0	6031	678.569359672928	4
0	6032	678.664937884715	3
0	6036	678.829980198985	4
0	6038	678.84641576192	5
0	6040	678.874101504167	6
0	6041	679.351291560163	5
0	6045	679.735920779846	6
0	6047	679.979747898429	7
0	6048	680.037645235611	6
0	6050	680.037645235611	5
0	6052	680.723998911059	4
0	6054	680.723998911059	3
0	6055	680.723998911059	2
0	6056	680.723998911059	1
0	6059	680.911122914041	2
0	6061	681.112835725178	3
0	6063	681.195514834503	4
0	6065	681.255642343517	5
0	6067	681.345229189774	6
0	6068	681.410352586507	5
0	6071	682.096706261955	4
0	6074	682.783059937403	3
0	6077	683.469413612851	2
0	6079	683.469413612851	1
0	6080	683.469413612851	0
0	6091	684.74635657475	1
0	6092	685.293081476687	0
0	6101	686.628756846116	1
0	6102	686.729974230233	0
0	6121	690.719758157503	1
0	6123	690.901428403433	2
0	6124	690.999776864335	1
0	6128	691.606217603596	2
0	6129	691.686130539783	1
0	6132	692.372484215231	0
0	6142	693.809110645964	1
0	6143	694.053512074096	0
0	6147	694.400216384993	1
0	6149	694.457917682626	2
0	6150	694.739865749544	1
0	6154	694.855592825737	2
0	6156	695.081078833415	3
0	6158	695.190995961286	4
0	6159	695.426219424992	3
0	6163	695.618292272087	4
0	6164	696.11257310044	3
0	6168	696.261141430531	4
0	6170	696.778072150436	5
0	6171	696.798926775888	4
0	6175	697.012852488054	5
0	6176	697.485280451336	4
0	6178	697.485280451336	3
0	6179	697.485280451336	2
0	6181	698.171634126784	1
0	6185	698.376820233391	2
0	6187	698.609994286518	3
0	6188	698.857987802232	2
0	6190	698.857987802232	1
0	6193	698.889486246919	2
0	6195	699.390791182494	3
0	6196	699.54434147768	2
0	6200	699.7739369398	3
0	6202	699.915133129019	4
0	6203	700.230695153128	3
0	6206	700.917048828576	2
0	6210	701.187974082272	3
0	6211	701.603402504024	2
0	6213	701.603402504024	1
0	6216	701.958567804639	2
0	6217	702.289756179472	1
0	6221	702.337449834411	2
0	6222	702.97610985492	1
0	6226	703.589505631721	2
0	6227	703.662463530368	1
0	6231	703.848644494867	2
0	6232	704.348817205816	1
0	6236	704.590798310064	2
0	6237	705.035170881264	1
0	6241	705.21818929636	2
0	6242	705.721524556712	1
0	6246	705.776852720248	2
0	6247	706.40787823216	1
0	6251	706.41348141784	2
0	6252	707.094231907608	1
0	6256	707.244897702427	2
0	6258	707.330915292071	3
0	6260	707.573389569942	4
0	6262	707.583545253791	5
0	6264	707.583986027971	6
0	6266	707.606243773812	7
0	6268	707.611482256347	8
0	6269	707.780585583056	7
0	6272	708.466939258504	6
0	6276	709.049759136169	7
0	6277	709.153292933952	6
0	6279	709.153292933952	5
0	6282	709.488700952252	6
0	6283	709.8396466094	5
0	6285	709.8396466094	4
0	6286	709.8396466094	3
0	6287	709.8396466094	2
0	6288	709.8396466094	1
0	6291	710.015206901398	2
0	6292	710.526000284848	1
0	6296	711.027365704621	2
0	6298	711.033941783674	3
0	6300	711.145093384909	4
0	6301	711.212353960296	3
0	6305	711.330865361726	4
0	6306	711.898707635744	3
0	6309	712.585061311192	2
0	6313	713.210099308316	3
0	6314	713.27141498664	2
0	6316	713.27141498664	1
0	6317	713.27141498664	0
0	6320	713.719540941225	1
0	6323	714.074381467142	0
0	6326	714.459755127155	1
0	6328	714.463164445916	2
0	6330	714.603780351532	3
0	6332	714.731311348276	4
0	6333	714.76073514259	3
0	6337	715.352164895728	4
0	6339	715.432597194558	5
0	6340	715.447088818038	4
0	6344	715.798910503188	5
0	6345	716.133442493486	4
0	6348	716.819796168934	3
0	6350	716.819796168934	2
0	6353	717.033796044334	3
0	6354	717.506149844382	2
0	6356	717.506149844382	1
0	6359	717.807539984829	2
0	6360	718.19250351983	1
0	6364	718.438071139944	2
0	6366	718.481497272685	3
0	6368	718.751376913019	4
0	6370	718.75814370154	5
0	6372	718.791598018734	6
0	6373	718.878857195278	5
0	6377	719.555985613937	6
0	6378	719.565210870726	5
0	6382	719.792704115264	6
0	6383	720.251564546174	5
0	6385	720.251564546174	4
0	6388	720.561119532258	5
0	6389	720.937918221622	4
0	6391	720.937918221622	3
0	6392	720.937918221622	2
0	6395	721.068860113403	3
0	6396	721.62427189707	2
0	6398	721.62427189707	1
0	6401	721.659267014791	2
0	6402	722.310625572518	1
0	6406	722.956583909062	2
0	6407	722.996979247966	1
0	6410	723.683332923414	0
0	6414	723.704024477591	1
0	6416	723.924044770899	2
0	6417	724.369686598862	1
0	6421	724.65683363425	2
0	6423	724.778479738578	3
0	6424	725.05604027431	2
0	6428	725.403770702924	3
0	6430	725.445419084074	4
0	6431	725.742393949758	3
0	6434	726.428747625206	2
0	6438	726.920123241338	3
0	6439	727.115101300654	2
0	6443	727.409356690586	3
0	6445	727.47177060951	4
0	6447	727.763777190182	5
0	6448	727.801454976102	4
0	6450	727.801454976102	3
0	6452	728.48780865155	2
0	6456	728.900183845515	3
0	6457	729.174162326998	2
0	6460	729.860516002446	1
0	6462	729.860516002446	0
0	6465	730.188839430491	1
0	6467	730.543497445618	2
0	6468	730.546869677894	1
0	6471	731.233223353342	0
0	6475	731.519114070796	1
0	6477	731.587201244523	2
0	6479	731.685128630639	3
0	6480	731.91957702879	2
0	6484	731.968194232257	3
0	6486	732.274402864858	4
0	6487	732.605930704238	3
0	6490	733.292284379686	2
0	6494	733.56826419556	3
0	6496	733.631755170037	4
0	6497	733.978638055134	3
0	6499	733.978638055134	2
0	6502	734.268876364531	3
0	6504	734.51478970236	4
0	6507	734.781604535636	3
0	6510	734.81247288089	4
0	6511	735.467958211084	3
0	6513	735.467958211084	2
0	6516	735.61058662563	3
0	6517	736.154311886532	2
0	6521	736.171017333346	3
0	6523	736.345281517793	4
0	6524	736.84066556198	3
0	6526	736.84066556198	2
0	6529	736.996542001941	3
0	6531	737.103838595508	4
0	6533	737.345070777446	5
0	6534	737.527019237428	4
0	6537	738.213372912876	3
0	6539	738.213372912876	2
0	6542	738.222719404897	3
0	6544	738.346758468198	4
0	6546	738.376588357153	5
0	6547	738.899726588324	4
0	6549	738.899726588324	3
0	6552	739.576086680399	4
0	6553	739.586080263772	3
0	6556	740.27243393922	2
0	6558	740.27243393922	1
0	6559	740.27243393922	0
0	6567	741.714833165152	1
0	6568	742.242543599171	0
0	6572	742.282150445709	1
0	6574	742.645684763926	2
0	6575	742.928897274619	1
0	6579	743.030512679734	2
0	6581	743.528706549845	3
0	6582	743.615250950067	2
0	6585	744.301604625515	1
0	6588	744.987958300963	0
0	6592	745.302776809657	1
0	6593	745.674311976411	0
0	6597	745.866014776734	1
0	6598	746.360665651859	0
0	6602	746.943456791178	1
0	6603	747.047019327307	0
0	6617	749.384020612398	1
0	6618	750.025295645784	0
0	6622	750.329311568722	1
0	6623	750.711649321232	0
0	6627	750.741416598189	1
0	6628	751.39800299668	0
0	6632	751.567963933089	1
0	6633	752.084356672128	0
0	6637	752.300063147716	1
0	6638	752.770710347576	0
0	6652	756.316760611889	1
0	6653	756.98165800612	0
0	6662	757.760597559634	1
0	6664	758.14605345743	2
0	6665	758.37903376453	1
0	6669	759.00035596715	2
0	6673	759.077815977735	3
0	6674	759.182000245032	2
0	6676	759.86835392048	1
0	6680	759.887293397087	2
0	6682	759.984665915404	3
0	6684	760.1615199217	4
0	6686	760.463876216868	5
0	6687	760.554707595928	4
0	6691	760.771748739154	5
0	6693	761.225306955658	6
0	6694	761.241061271376	5
0	6698	761.333304441189	6
0	6700	761.371829703555	7
0	6702	761.382116030596	8
0	6704	761.551325043638	9
0	6706	761.605342738076	10
0	6708	761.816887176847	11
0	6709	761.927414946824	10
0	6711	761.927414946824	9
0	6712	761.927414946824	8
0	6715	762.269213885832	9
0	6716	762.613768622272	8
0	6718	762.613768622272	7
0	6721	762.927786082615	8
0	6722	763.30012229772	7
0	6724	763.30012229772	6
0	6725	763.30012229772	5
0	6726	763.30012229772	4
0	6727	763.30012229772	3
0	6730	763.603122674301	4
0	6732	763.703318741226	5
0	6734	763.839337453143	6
0	6735	763.986475973168	5
0	6737	763.986475973168	4
0	6739	764.672829648616	3
0	6741	764.672829648616	2
0	6744	764.762142512942	3
0	6745	765.359183324064	2
0	6748	766.045536999512	1
0	6750	766.045536999512	0
0	6753	766.301035117714	1
0	6754	766.73189067496	0
0	6758	766.765430982916	1
0	6759	767.418244350408	0
0	6768	768.947213031675	1
0	6769	769.032370938639	0
0	6773	769.333507374727	1
0	6775	769.505752855223	2
0	6777	769.589378716824	3
0	6778	769.718724614087	2
0	6781	770.405078289535	1
0	6785	770.527360924431	2
0	6787	770.724360165277	3
0	6788	771.091431964983	2
0	6792	771.514203172214	3
0	6793	771.777785640431	2
0	6797	772.263021747157	3
0	6799	772.434684180514	4
0	6800	772.464139315879	3
0	6802	772.464139315879	2
0	6805	772.496562763364	3
0	6807	772.609933744309	4
0	6809	772.867755135277	5
0	6811	773.046388830643	6
0	6812	773.150492991327	5
0	6816	773.648285618036	6
0	6817	773.836846666775	5
0	6820	774.523200342223	4
0	6822	774.523200342223	3
0	6823	774.523200342223	2
0	6826	774.866955167895	3
0	6827	775.209554017671	2
0	6829	775.209554017671	1
0	6832	775.304755688599	2
0	6834	775.407788526395	3
0	6836	775.772290519945	4
0	6837	775.895907693119	3
0	6840	776.582261368567	2
0	6844	776.7909164613	3
0	6846	776.89145268354	4
0	6847	777.268615044015	3
0	6849	777.268615044015	2
0	6852	777.281642090637	3
0	6854	777.383899826152	4
0	6856	777.421473785309	5
0	6858	777.488500641707	6
0	6860	777.65372336407	7
0	6861	777.954968719463	6
0	6864	778.641322394911	5
0	6866	778.641322394911	4
0	6869	778.656336568259	5
0	6871	779.212006702635	6
0	6872	779.327676070359	5
0	6874	779.327676070359	4
0	6875	779.327676070359	3
0	6876	779.327676070359	2
0	6879	779.771842119489	3
0	6882	780.130642550861	2
0	6885	780.31080136118	3
0	6887	780.341169830086	4
0	6888	780.816996226309	3
0	6892	781.392091761608	4
0	6893	781.503349901757	3
0	6895	781.503349901757	2
0	6897	782.189703577205	1
0	6899	782.189703577205	0
0	6902	782.196872621546	1
0	6904	782.331287522513	2
0	6905	782.876057252653	1
0	6909	783.348029525864	2
0	6911	783.400728628119	3
0	6912	783.562410928101	2
0	6915	784.248764603549	1
0	6918	784.935118278997	0
0	6927	786.449789657866	1
0	6928	786.655643074713	0
0	6932	786.729106644489	1
0	6934	787.122402656216	2
0	6935	787.341996750161	1
0	6939	787.416907522509	2
0	6940	788.028350425609	1
0	6944	788.400558086921	2
0	6946	788.648597320013	3
0	6947	788.714704101057	2
0	6951	788.851629812745	3
0	6952	789.401057776505	2
0	6956	789.746100472518	3
0	6957	790.087411451953	2
0	6960	790.773765127401	1
0	6962	790.773765127401	0
0	6965	790.924001139141	1
0	6967	790.969314928981	2
0	6968	791.460118802849	1
0	6972	792.070320348305	2
0	6973	792.146472478297	1
0	6976	792.832826153745	0
0	6985	793.788708815295	1
0	6986	794.244349193824	0
0	6990	794.718404881888	1
0	6991	794.930702869272	0
0	6995	794.990927014813	1
0	6996	795.61705654472	0
0	7000	795.782101671555	1
0	7002	796.234176234305	2
0	7003	796.303410220168	1
0	7007	796.802824750168	2
0	7008	796.989763895616	1
0	7012	797.134846913377	2
0	7014	797.213450523909	3
0	7016	797.470707856074	4
0	7017	797.676117571064	3
0	7021	797.6858408464	4
0	7023	798.072991445312	5
0	7024	798.362471246512	4
0	7027	799.04882492196	3
0	7029	799.04882492196	2
0	7032	799.408889487693	3
0	7033	799.735178597408	2
0	7035	799.735178597408	1
0	7038	799.878743927613	2
0	7040	800.14264807614	3
0	7041	800.421532272856	2
0	7045	800.427395477429	3
0	7047	800.730484293509	4
0	7049	801.012128711282	5
0	7051	801.030905479918	6
0	7053	801.099052010022	7
0	7057	801.166057194873	8
0	7058	801.224498753358	7
0	7061	801.647981707926	8
0	7062	801.910852428806	7
0	7064	801.910852428806	6
0	7067	802.126679156888	7
0	7069	802.359636873409	8
0	7070	802.597206104254	7
0	7072	802.597206104254	6
0	7075	802.739007194292	7
0	7076	803.283559779702	6
0	7078	803.283559779702	5
0	7079	803.283559779702	4
0	7080	803.283559779702	3
0	7082	803.96991345515	2
0	7084	803.96991345515	1
0	7087	804.071126905277	2
0	7089	804.125927642708	3
0	7091	804.555641697737	4
0	7092	804.656267130598	3
0	7094	804.656267130598	2
0	7097	805.176872792293	3
0	7098	805.342620806046	2
0	7102	805.88793440472	3
0	7103	806.028974481494	2
0	7107	806.160169549385	3
0	7109	806.356989724973	4
0	7110	806.715328156942	3
0	7113	807.40168183239	2
[...]
8	3946	439.660103150842	0
8	3953	440.34645682629	0
8	3960	441.032810501738	0
8	3965	441.719164177186	0
8	3972	442.405517852634	0
8	3976	443.091871528082	0
8	3981	443.77822520353	0
8	3989	444.464578878978	0
8	3998	445.150932554426	0
8	4005	445.837286229874	0
8	4012	446.523639905322	0
8	4020	447.20999358077	0
8	4031	447.896347256218	0
8	4042	448.582700931666	0
8	4047	449.269054607114	0
8	4053	449.955408282562	0
8	4063	450.64176195801	0
8	4069	451.328115633458	0
8	4076	452.014469308906	0
8	4083	452.700822984354	0
8	4087	453.503789464856	0
8	4094	454.190143140304	0
8	4101	454.876496815752	0
8	4108	455.5628504912	0
8	4115	456.249204166648	0
8	4120	456.935557842096	0
8	4134	457.621911517544	0
8	4141	458.308265192992	0
8	4150	458.99461886844	0
8	4160	459.680972543888	0
8	4168	460.367326219336	0
8	4174	461.053679894784	0
8	4179	461.740033570232	0
8	4187	462.42638724568	0
8	4190	463.112740921128	0
8	4199	463.799094596576	0
8	4204	464.485448272024	0
8	4207	465.171801947472	0
8	4212	465.85815562292	0
8	4220	466.544509298368	0
8	4223	467.230862973816	0
8	4232	467.917216649264	0
8	4241	468.603570324712	0
8	4244	469.28992400016	0
8	4251	469.976277675608	0
8	4262	470.662631351056	0
8	4267	471.348985026504	0
8	4270	472.035338701952	0
8	4279	472.7216923774	0
8	4283	473.408046052848	0
8	4287	474.21101253335	0
8	4296	474.991544402248	0
8	4303	475.677898077696	0
8	4308	476.364251753144	0
8	4315	477.050605428592	0
8	4322	477.73695910404	0
8	4327	478.423312779488	0
8	4331	479.109666454936	0
8	4342	479.796020130384	0
8	4345	480.482373805832	0
8	4352	481.16872748128	0
8	4357	481.855081156728	0
8	4360	482.541434832176	0
8	4365	483.227788507624	0
8	4370	483.914142183072	0
8	4375	484.60049585852	0
8	4384	485.286849533968	0
8	4393	485.973203209416	0
8	4396	486.659556884864	0
8	4405	487.345910560312	0
8	4410	488.03226423576	0
8	4416	488.718617911208	0
8	4421	489.404971586656	0
8	4424	490.091325262104	0
8	4427	490.777678937552	0
8	4435	491.588926176556	0
8	4438	492.275279852004	0
8	4449	493.319818645865	0
8	4454	494.006172321313	0
8	4459	494.692525996761	0
8	4466	495.495492477263	0
8	4471	496.181846152711	0
8	4478	496.868199828159	0
8	4481	497.554553503607	0
8	4484	498.240907179055	0
8	4492	498.976454547391	0
8	4495	499.662808222839	0
8	4506	500.747860136526	0
8	4509	501.434213811974	0
8	4514	502.120567487422	0
8	4521	502.80692116287	0
8	4524	503.493274838318	0
8	4527	504.179628513766	0
8	4539	505.03685832963	0
8	4546	505.723212005078	0
8	4551	506.409565680526	0
8	4561	507.095919355974	0
8	4568	507.782273031422	0
8	4572	508.46862670687	0
8	4577	509.154980382318	0
8	4587	509.841334057766	0
8	4590	510.527687733214	0
8	4601	511.214041408662	0
8	4604	511.90039508411	0
8	4611	512.586748759558	0
8	4616	513.273102435006	0
8	4620	513.959456110454	0
8	4625	514.645809785902	0
8	4631	515.33216346135	0
8	4634	516.018517136798	0
8	4642	517.217600503827	0
8	4647	517.903954179275	0
8	4652	518.590307854723	0
8	4657	519.276661530171	0
8	4660	519.963015205619	0
8	4667	520.753810222425	0
8	4674	521.440163897873	0
8	4681	522.126517573321	0
8	4686	522.812871248769	0
8	4691	523.499224924217	0
8	4694	524.185578599665	0
8	4702	524.871932275113	0
8	4711	525.558285950561	0
8	4716	526.244639626009	0
8	4725	526.930993301457	0
8	4732	527.617346976905	0
8	4741	528.303700652353	0
8	4748	528.990054327801	0
8	4754	529.676408003249	0
8	4760	530.362761678697	0
8	4763	531.049115354145	0
8	4766	531.735469029593	0
8	4771	532.659403918687	0
8	4780	533.9856825487	0
8	4783	534.672036224148	0
8	4786	535.358389899596	0
8	4793	536.498515600485	0
8	4798	537.184869275933	0
8	4801	537.871222951381	0
8	4816	538.721002433353	0
8	4822	539.523968913855	0
8	4827	540.210322589303	0
8	4830	540.896676264751	0
8	4838	541.583029940199	0
8	4841	542.269383615647	0
8	4848	543.237927953279	0
8	4857	543.924281628727	0
8	4862	544.610635304175	0
8	4865	545.296988979623	0
8	4873	545.983342655071	0
8	4880	546.669696330519	0
8	4883	547.356050005967	0
8	4888	548.042403681415	0
8	4897	548.728757356863	0
8	4902	549.415111032311	0
8	4913	550.101464707759	0
8	4922	550.787818383207	0
8	4929	551.474172058655	0
8	4933	552.160525734103	0
8	4938	552.846879409551	0
8	4945	553.687185537603	0
8	4958	554.460615537595	0
8	4961	555.146969213043	0
8	4964	555.833322888491	0
8	4967	556.519676563939	0
8	4977	557.625229915078	0
8	4980	558.311583590526	0
8	4985	558.997937265974	0
8	4992	559.684290941422	0
8	4999	560.37064461687	0
8	5011	561.173611097372	0
8	5016	561.85996477282	0
8	5020	562.546318448268	0
8	5026	563.232672123716	0
8	5037	563.919025799164	0
8	5042	564.605379474612	0
8	5047	565.29173315006	0
8	5053	565.978086825508	0
8	5056	566.664440500956	0
8	5067	567.350794176404	0
8	5074	568.037147851852	0
8	5077	568.7235015273	0
8	5080	569.409855202748	0
8	5088	570.096208878196	0
8	5094	570.782562553644	0
8	5101	571.468916229092	0
8	5106	572.15526990454	0
8	5113	572.841623579988	0
8	5118	573.527977255436	0
8	5124	574.214330930884	0
8	5129	574.900684606332	0
8	5135	575.58703828178	0
8	5138	576.273391957228	0
8	5149	576.959745632676	0
8	5154	577.646099308124	0
8	5159	578.332452983572	0
8	5166	579.01880665902	0
8	5175	579.705160334468	0
8	5180	580.391514009916	0
8	5183	581.077867685364	0
8	5188	581.880834165866	0
8	5198	582.629321322019	0
8	5207	583.315674997467	0
8	5212	584.002028672915	0
8	5215	584.688382348363	0
8	5220	585.374736023811	0
8	5233	586.061089699259	0
8	5242	586.747443374707	0
8	5247	587.433797050155	0
8	5254	588.120150725603	0
8	5263	588.806504401051	0
8	5268	589.492858076499	0
8	5277	590.179211751947	0
8	5282	590.865565427395	0
8	5291	591.551919102843	0
8	5298	592.238272778291	0
8	5303	592.924626453739	0
8	5311	593.610980129187	0
8	5324	594.297333804635	0
8	5333	594.983687480083	0
8	5339	595.670041155531	0
8	5347	596.356394830979	0
8	5354	597.042748506427	0
8	5358	597.729102181875	0
8	5364	598.415455857323	0
8	5369	599.101809532771	0
8	5378	599.788163208219	0
8	5381	600.474516883667	0
8	5388	601.160870559115	0
8	5396	601.847224234563	0
8	5404	602.650190715065	0
8	5411	603.336544390513	0
8	5426	604.022898065961	0
8	5429	604.709251741409	0
8	5433	605.395605416857	0
8	5441	606.081959092305	0
8	5445	606.768312767753	0
8	5460	608.594637651686	0
8	5465	609.280991327134	0
8	5470	609.967345002582	0
8	5477	610.65369867803	0
8	5485	611.340052353478	0
8	5488	612.026406028926	0
8	5492	612.712759704374	0
8	5497	613.581034556673	0
8	5504	614.438881241971	0
8	5509	615.125234917419	0
8	5514	615.811588592867	0
8	5517	616.497942268315	0
8	5526	617.258030192396	0
8	5531	617.944383867844	0
8	5538	618.630737543292	0
8	5541	619.31709121874	0
8	5544	620.003444894188	0
8	5555	620.689798569636	0
8	5566	621.376152245084	0
8	5571	622.062505920532	0
8	5576	622.74885959598	0
8	5584	623.435213271428	0
8	5595	624.121566946876	0
8	5599	624.924533427378	0
8	5602	625.610887102826	0
8	5605	626.297240778274	0
8	5611	627.196828243236	0
8	5616	627.928727068286	0
8	5625	629.352507770708	0
8	5630	630.038861446156	0
8	5633	630.725215121604	0
8	5636	631.411568797052	0
8	5647	632.332862705248	0
8	5652	633.019216380696	0
8	5657	633.705570056144	0
8	5662	634.391923731592	0
8	5668	635.07827740704	0
8	5671	635.764631082488	0
8	5674	636.450984757936	0
8	5681	637.961472667044	0
8	5686	638.647826342492	0
8	5689	639.33418001794	0
8	5694	640.169321625501	0
8	5703	641.31077266424	0
8	5714	641.997126339688	0
8	5717	642.683480015136	0
8	5726	643.369833690584	0
8	5729	644.056187366032	0
8	5746	644.74254104148	0
8	5751	645.428894716928	0
8	5757	646.115248392376	0
8	5763	646.801602067824	0
8	5776	647.487955743272	0
8	5780	648.290922223774	0
8	5787	648.977275899222	0
8	5793	649.66362957467	0
8	5796	650.349983250118	0
8	5800	651.036336925566	0
8	5809	653.058143315684	0
8	5816	653.744496991132	0
8	5823	654.43085066658	0
8	5830	655.117204342028	0
8	5835	655.803558017476	0
8	5839	656.489911692924	0
8	5847	657.176265368372	0
8	5850	657.86261904382	0
8	5865	658.548972719268	0
8	5869	659.235326394716	0
8	5876	659.921680070164	0
8	5885	660.608033745612	0
8	5889	661.29438742106	0
8	5898	661.980741096508	0
8	5908	662.667094771956	0
8	5913	663.353448447404	0
8	5920	664.039802122852	0
8	5929	664.7261557983	0
8	5936	665.412509473748	0
8	5939	666.098863149196	0
8	5943	666.785216824644	0
8	5951	667.749545541431	0
8	5954	668.435899216879	0
8	5961	669.277770137444	0
8	5964	669.964123812892	0
8	5974	671.115047454787	0
8	5977	671.801401130235	0
8	5984	672.487754805683	0
8	5989	673.174108481131	0
8	5994	673.860462156579	0
8	5999	674.546815832027	0
8	6006	675.233169507475	0
8	6009	675.919523182923	0
8	6014	676.605876858371	0
8	6019	677.292230533819	0
8	6026	677.978584209267	0
8	6033	678.664937884715	0
8	6042	679.351291560163	0
8	6049	680.037645235611	0
8	6053	680.723998911059	0
8	6069	681.410352586507	0
8	6072	682.096706261955	0
8	6075	682.783059937403	0
8	6078	683.469413612851	0
8	6086	684.350345453781	0
8	6093	685.293081476687	0
8	6096	685.979435152135	0
8	6103	686.729974230233	0
8	6106	687.416327905681	0
8	6111	688.560549725669	0
8	6116	689.715453477364	0
8	6125	690.999776864335	0
8	6130	691.686130539783	0
8	6133	692.372484215231	0
8	6136	693.058837890679	0
8	6144	694.053512074096	0
8	6151	694.739865749544	0
8	6160	695.426219424992	0
8	6165	696.11257310044	0
8	6172	696.798926775888	0
8	6177	697.485280451336	0
8	6182	698.171634126784	0
8	6189	698.857987802232	0
8	6197	699.54434147768	0
8	6204	700.230695153128	0
8	6207	700.917048828576	0
8	6212	701.603402504024	0
8	6218	702.289756179472	0
8	6223	702.97610985492	0
8	6228	703.662463530368	0
8	6233	704.348817205816	0
8	6238	705.035170881264	0
8	6243	705.721524556712	0
8	6248	706.40787823216	0
8	6253	707.094231907608	0
8	6270	707.780585583056	0
8	6273	708.466939258504	0
8	6278	709.153292933952	0
8	6284	709.8396466094	0
8	6293	710.526000284848	0
8	6302	711.212353960296	0
8	6307	711.898707635744	0
8	6310	712.585061311192	0
8	6315	713.27141498664	0
8	6322	713.957768662088	0
8	6334	714.76073514259	0
8	6341	715.447088818038	0
8	6346	716.133442493486	0
8	6349	716.819796168934	0
8	6355	717.506149844382	0
8	6361	718.19250351983	0
8	6374	718.878857195278	0
8	6379	719.565210870726	0
8	6384	720.251564546174	0
8	6390	720.937918221622	0
8	6397	721.62427189707	0
8	6403	722.310625572518	0
8	6408	722.996979247966	0
8	6411	723.683332923414	0
8	6418	724.369686598862	0
8	6425	725.05604027431	0
8	6432	725.742393949758	0
8	6435	726.428747625206	0
8	6440	727.115101300654	0
8	6449	727.801454976102	0
8	6453	728.48780865155	0
8	6458	729.174162326998	0
8	6461	729.860516002446	0
8	6469	730.546869677894	0
8	6472	731.233223353342	0
8	6481	731.91957702879	0
8	6488	732.605930704238	0
8	6491	733.292284379686	0
8	6498	733.978638055134	0
8	6506	734.664991730582	0
8	6512	735.467958211084	0
8	6518	736.154311886532	0
8	6525	736.84066556198	0
8	6535	737.527019237428	0
8	6538	738.213372912876	0
8	6548	738.899726588324	0
8	6554	739.586080263772	0
8	6557	740.27243393922	0
8	6562	740.958787614668	0
8	6569	742.242543599171	0
8	6576	742.928897274619	0
8	6583	743.615250950067	0
8	6586	744.301604625515	0
8	6589	744.987958300963	0
8	6594	745.674311976411	0
8	6599	746.360665651859	0
8	6604	747.047019327307	0
8	6607	747.733373002755	0
8	6612	749.079565754807	0
8	6619	750.025295645784	0
8	6624	750.711649321232	0
8	6629	751.39800299668	0
8	6634	752.084356672128	0
8	6639	752.770710347576	0
8	6642	753.457064023024	0
8	6647	755.253179319348	0
8	6654	756.98165800612	0
8	6657	757.668011681568	0
8	6666	758.37903376453	0
8	6671	759.065387439978	0
8	6677	759.86835392048	0
8	6688	760.554707595928	0
8	6695	761.241061271376	0
8	6710	761.927414946824	0
8	6717	762.613768622272	0
8	6723	763.30012229772	0
8	6736	763.986475973168	0
8	6740	764.672829648616	0
8	6746	765.359183324064	0
8	6749	766.045536999512	0
8	6755	766.73189067496	0
8	6760	767.418244350408	0
8	6763	768.104598025856	0
8	6770	769.032370938639	0
8	6779	769.718724614087	0
8	6782	770.405078289535	0
8	6789	771.091431964983	0
8	6794	771.777785640431	0
8	6801	772.464139315879	0
8	6813	773.150492991327	0
8	6818	773.836846666775	0
8	6821	774.523200342223	0
8	6828	775.209554017671	0
8	6838	775.895907693119	0
8	6841	776.582261368567	0
8	6848	777.268615044015	0
8	6862	777.954968719463	0
8	6865	778.641322394911	0
8	6873	779.327676070359	0
8	6881	780.014029745807	0
8	6889	780.816996226309	0
8	6894	781.503349901757	0
8	6898	782.189703577205	0
8	6906	782.876057252653	0
8	6913	783.562410928101	0
8	6916	784.248764603549	0
8	6919	784.935118278997	0
8	6922	785.621471954445	0
8	6929	786.655643074713	0
8	6936	787.341996750161	0
8	6941	788.028350425609	0
8	6948	788.714704101057	0
8	6953	789.401057776505	0
8	6958	790.087411451953	0
8	6961	790.773765127401	0
8	6969	791.460118802849	0
8	6974	792.146472478297	0
8	6977	792.832826153745	0
8	6980	793.519179829193	0
8	6987	794.244349193824	0
8	6992	794.930702869272	0
8	6997	795.61705654472	0
8	7004	796.303410220168	0
8	7009	796.989763895616	0
8	7018	797.676117571064	0
8	7025	798.362471246512	0
8	7028	799.04882492196	0
8	7034	799.735178597408	0
8	7042	800.421532272856	0
8	7055	801.107885948304	0
8	7063	801.910852428806	0
8	7071	802.597206104254	0
8	7077	803.283559779702	0
8	7083	803.96991345515	0
8	7093	804.656267130598	0
8	7099	805.342620806046	0
8	7104	806.028974481494	0
8	7111	806.715328156942	0
8	7114	807.40168183239	0
8	7121	808.088035507838	0
8	7130	808.774389183286	0
8	7133	809.460742858734	0
8	7136	810.147096534182	0
8	7141	810.83345020963	0
8	7144	811.519803885078	0
8	7151	812.467622586476	0
8	7160	813.153976261924	0
8	7169	813.840329937372	0
8	7176	814.52668361282	0
8	7181	815.213037288268	0
8	7185	815.899390963716	0
8	7194	816.585744639164	0
8	7198	817.272098314612	0
8	7205	817.95845199006	0
8	7208	818.644805665508	0
8	7211	819.331159340956	0
8	7216	821.928260237421	0
8	7229	823.493081255783	0
8	7234	824.179434931231	0
8	7241	824.865788606679	0
8	7248	825.668755087181	0
8	7254	826.355108762629	0
8	7265	827.041462438077	0
8	7273	827.727816113525	0
8	7278	828.414169788973	0
8	7286	829.100523464421	0
8	7294	829.786877139869	0
8	7297	830.473230815317	0
8	7302	831.159584490765	0
8	7306	831.845938166213	0
8	7313	832.635509283529	0
8	7318	833.321862958977	0
8	7321	834.008216634425	0
8	7328	835.389916207869	0
8	7333	836.076269883317	0
8	7342	836.762623558765	0
8	7345	837.448977234213	0
8	7350	838.135330909661	0
8	7355	838.821684585109	0
8	7360	839.508038260557	0
8	7365	840.194391936005	0
8	7368	840.880745611453	0
8	7373	841.567099286901	0
8	7376	842.253452962349	0
8	7389	843.557635987207	0
8	7392	844.243989662655	0
8	7397	844.930343338103	0
8	7402	845.616697013551	0
8	7412	846.303050688999	0
8	7423	846.989404364447	0
8	7429	847.792370844949	0
8	7438	848.478724520397	0
8	7443	849.165078195845	0
8	7447	849.851431871293	0
8	7455	850.716278701837	0
8	7460	851.402632377285	0
8	7463	852.088986052733	0
8	7470	853.151432535173	0
8	7481	853.837786210621	0
8	7488	854.524139886069	0
8	7493	855.210493561517	0
8	7497	855.896847236965	0
8	7503	856.583200912413	0
8	7509	857.269554587861	0
8	7518	857.955908263309	0
8	7525	858.642261938757	0
8	7530	859.328615614205	0
8	7539	860.014969289653	0
8	7548	860.701322965101	0
8	7553	861.387676640549	0
8	7560	862.074030315997	0
8	7567	862.760383991445	0
8	7571	863.446737666893	0
8	7574	864.133091342341	0
8	7580	864.969853187797	0
8	7597	866.051920403562	0
8	7604	866.73827407901	0
8	7609	867.424627754458	0
8	7615	868.110981429906	0
8	7621	868.797335105354	0
8	7625	869.600301585856	0
8	7631	870.324799818661	0
8	7644	871.037426138565	0
8	7649	871.723779814013	0
8	7652	872.410133489461	0
8	7655	873.096487164909	0
8	7664	873.840370105777	0
8	7673	874.526723781225	0
8	7680	875.213077456673	0
8	7683	875.899431132121	0
8	7689	876.585784807569	0
8	7696	877.272138483017	0
8	7703	877.958492158465	0
8	7708	878.644845833913	0
8	7713	879.331199509361	0
8	7716	880.017553184809	0
8	7726	880.703906860257	0
8	7735	881.390260535705	0
8	7738	882.076614211153	0
8	7747	882.762967886601	0
8	7751	883.449321562049	0
8	7758	884.135675237497	0
8	7766	884.822028912945	0
8	7775	885.508382588393	0
8	7782	886.194736263841	0
8	7789	886.881089939289	0
8	7799	887.567443614737	0
8	7802	888.253797290185	0
8	7806	888.940150965633	0
8	7812	889.626504641081	0
8	7818	890.429471121583	0
8	7823	891.115824797031	0
8	7828	891.802178472479	0
8	7833	892.488532147927	0
8	7836	893.174885823375	0
8	7841	894.288356697466	0
8	7850	895.637133331728	0
8	7855	896.323487007176	0
8	7862	897.009840682624	0
8	7871	897.696194358072	0
8	7882	898.38254803352	0
8	7893	899.068901708968	0
8	7902	899.755255384416	0
8	7910	900.441609059864	0
8	7919	901.127962735312	0
8	7926	901.81431641076	0
8	7932	902.500670086208	0
8	7939	903.187023761656	0
8	7943	903.873377437104	0
8	7946	904.559731112552	0
8	7949	905.246084788	0
8	7958	906.10064059089	0
8	7961	906.786994266338	0
8	7968	907.473347941786	0
8	7975	908.159701617234	0
8	7980	908.846055292682	0
8	7985	909.53240896813	0
8	7990	910.218762643578	0
8	7999	910.905116319026	0
8	8006	911.591469994474	0
8	8014	912.394436474976	0
8	8025	913.080790150424	0
8	8031	913.767143825872	0
8	8040	914.45349750132	0
8	8043	915.139851176768	0
8	8050	915.826204852216	0
8	8059	916.512558527664	0
8	8068	917.198912203112	0
8	8075	917.88526587856	0
8	8085	918.571619554008	0
8	8096	919.257973229456	0
8	8106	919.944326904904	0
8	8112	920.630680580352	0
8	8118	921.3170342558	0
8	8127	922.003387931248	0
8	8138	922.689741606696	0
8	8144	923.376095282144	0
8	8147	924.062448957592	0
8	8155	924.74880263304	0
8	8166	925.435156308488	0
8	8173	926.121509983936	0
8	8176	926.807863659384	0
8	8181	927.494217334832	0
8	8191	928.18057101028	0
8	8194	928.866924685728	0
8	8197	929.553278361176	0
8	8202	930.260543617816	0
8	8207	931.577406018344	0
8	8216	932.524996260214	0
8	8219	933.211349935662	0
8	8223	934.014316416164	0
8	8232	934.905460006556	0
8	8235	935.591813682004	0
8	8240	936.278167357452	0
8	8253	936.9645210329	0
8	8258	937.650874708348	0
8	8263	938.337228383796	0
8	8272	939.023582059244	0
8	8280	939.709935734692	0
8	8287	940.39628941014	0
8	8292	941.082643085588	0
8	8296	941.768996761036	0
8	8302	942.455350436484	0
8	8312	943.141704111932	0
8	8315	943.82805778738	0
8	8324	944.514411462828	0
8	8327	945.200765138276	0
8	8332	945.887118813724	0
8	8341	946.573472489172	0
8	8346	947.25982616462	0
8	8349	947.946179840068	0
8	8354	948.632533515516	0
8	8359	949.318887190964	0
8	8362	950.005240866412	0
8	8369	951.056799154208	0
8	8372	951.743152829656	0
8	8377	952.473126492504	0
8	8382	953.394715129651	0
8	8387	954.096469679672	0
8	8394	955.80042115639	0
8	8400	956.603387636892	0
8	8407	957.28974131234	0
8	8414	957.976094987788	0
8	8417	958.662448663236	0
8	8422	959.348802338684	0
8	8430	960.035156014132	0
8	8433	960.72150968958	0
8	8436	961.407863365028	0
8	8443	962.225508905647	0
8	8456	962.911862581095	0
8	8461	963.598216256543	0
8	8464	964.284569931991	0
8	8471	964.970923607439	0
8	8478	965.657277282887	0
8	8483	966.343630958335	0
8	8488	967.029984633783	0
8	8492	967.716338309231	0
8	8497	968.402691984679	0
8	8504	969.089045660127	0
8	8513	969.775399335575	0
8	8522	970.461753011023	0
8	8527	971.148106686471	0
8	8534	971.834460361919	0
8	8542	972.520814037367	0
8	8552	973.207167712815	0
8	8556	973.893521388263	0
8	8560	974.579875063711	0
8	8567	975.266228739159	0
8	8570	975.952582414607	0
8	8575	976.638936090055	0
8	8581	977.441902570557	0
8	8586	978.128256246005	0
8	8589	978.814609921453	0
8	8594	979.919070985844	0
8	8607	980.792667943541	0
8	8612	981.479021618989	0
8	8615	982.165375294437	0
8	8622	982.851728969885	0
8	8630	983.538082645333	0
8	8633	984.224436320781	0
8	8638	984.910789996229	0
8	8645	985.597143671677	0
8	8650	986.283497347125	0
8	8657	986.969851022573	0
8	8662	987.656204698021	0
8	8667	988.342558373469	0
8	8674	989.028912048917	0
8	8679	989.715265724365	0
8	8686	990.401619399813	0
8	8691	991.087973075261	0
8	8699	991.774326750709	0
8	8702	992.460680426157	0
8	8709	993.147034101605	0
8	8717	993.833387777053	0
8	8724	994.519741452501	0
8	8727	995.206095127949	0
8	8731	995.892448803397	0
8	8734	996.578802478845	0
8	8740	997.513247342278	0
8	8749	998.23066359244	0
8	8753	999.033630072942	0
8	8762	999.71998374839	0

