version 2
run General-91-20240201-11:04:17-40057
attr configname General
attr datetime 20240201-11:04:17
attr experiment General
attr inifile main.ini
attr iterationvars "$0=2.0, $1=3.5, $2=50"
attr iterationvarsf 2.0,3.5,50-
attr measurement "$0=2.0, $1=3.5, $2=50"
attr network Rete
attr processid 40057
attr repetition 11
attr replication #11
attr resultdir results
attr runnumber 91
attr seedset 91
param Rete.lambda 2.0
param Rete.a 0.3s
param Rete.b 3.5s
param Rete.c 0.1s
param Rete.d 0.3s
param Rete.mu 3.0
param Rete.source2.interArrivalTime exponential(1s/lambda)
param Rete.source2.jobServiceTime exponential(1s/mu)
param Rete.source2.deadline uniform(a,b)
param Rete.server2.j 50
param Rete.server2.V uniform(c,d)

vector 0 Rete.passiveQueue queueLength:vector ETV
attr interpolationmode sample-hold
attr title "queue length, vector"
vector 1 Rete.sink lifeTime:vector ETV
attr interpolationmode none
attr title "lifetime of arrived jobs, vector"
attr unit s
vector 2 Rete.sink totalQueueingTime:vector ETV
attr interpolationmode none
attr title "the total time spent in queues by arrived jobs, vector"
attr unit s
vector 3 Rete.sink queuesVisited:vector ETV
attr interpolationmode none
attr title "the total number of queues visited by arrived jobs, vector"
vector 4 Rete.sink totalServiceTime:vector ETV
attr interpolationmode none
attr title "the total time spent  by arrived jobs, vector"
attr unit s
vector 5 Rete.sink totalDelayTime:vector ETV
attr interpolationmode none
attr title "the total time spent in delay nodes by arrived jobs, vector"
attr unit s
vector 6 Rete.sink delaysVisited:vector ETV
attr interpolationmode none
attr title "the total number of delays visited by arrived jobs, vector"
vector 7 Rete.sink generation:vector ETV
attr interpolationmode none
attr title "the generation of the arrived jobs, vector"
vector 8 Rete.passiveQueue queueingTime:vector ETV
attr interpolationmode none
attr title "queueing time at dequeue, vector"
attr unit s
0	0	0	0
0	15	0.759210432503	1
0	16	0.843225590966	0
0	90	10.319704449884	1
0	91	10.343254066787	0
0	95	10.359291666902	1
0	96	10.476259614159	0
0	110	10.930356801435	1
0	111	11.010224771785	0
0	115	11.113672917873	1
0	116	11.143230319157	0
0	145	13.911173061789	1
0	146	14.001994790415	0
0	155	14.309192568883	1
0	156	14.409751100551	0
0	180	16.317253005334	1
0	182	16.32194565095	2
0	184	16.402928132677	3
0	185	16.430358766051	2
0	188	16.563364313423	1
0	192	16.676955339338	2
0	193	16.696369860795	1
0	197	16.750677322669	2
0	198	16.829375408167	1
0	201	16.962380955539	0
0	205	17.002264334483	1
0	206	17.095386502911	0
0	215	17.564620034891	1
0	216	17.659614648794	0
0	235	19.973544162993	1
0	236	20.001584562746	0
0	266	22.531084395086	1
0	268	22.566970156195	2
0	270	22.602167983008	3
0	271	22.659993067164	2
0	274	22.792998614536	1
0	278	22.808400267781	2
0	279	22.926004161908	1
0	282	23.05900970928	0
0	296	24.832819426439	1
0	297	24.880151841474	0
0	301	24.974705125903	1
0	302	25.013157388846	0
0	376	33.909850374331	1
0	377	33.985893917815	0
0	411	36.50657851636	1
0	412	36.551539802373	0
0	421	37.262009065473	1
0	422	37.336627996806	0
0	456	40.824758500199	1
0	457	40.861230187524	0
0	517	46.767284262877	1
0	519	46.79684031369	2
0	520	46.824153553755	1
0	523	46.957159101127	0
0	572	52.308562968612	1
0	573	52.318474074416	0
0	627	63.968918759507	1
0	628	64.056466775827	0
0	642	65.663022947618	1
0	643	65.749801222263	0
0	687	71.477918332695	1
0	688	71.479366615138	0
0	697	71.813571317871	1
0	698	71.845708247053	0
0	712	73.313845031123	1
0	713	73.340871733654	0
0	778	80.838144752627	1
0	779	80.850317160022	0
0	793	82.746290360437	1
0	794	82.767518439592	0
0	818	85.092939777388	1
0	820	85.179027896264	2
0	821	85.206196091357	1
0	825	85.257351526566	2
0	826	85.339201638729	1
0	830	85.365033282506	2
0	831	85.472207186101	1
0	835	85.584504543559	2
0	836	85.605212733473	1
0	839	85.738218280845	0
0	918	95.584837971395	1
0	919	95.603231582041	0
0	958	104.117521580146	1
0	959	104.229526152642	0
0	968	104.44358453108	1
0	969	104.532939672264	0
0	1019	110.868692550627	1
0	1020	110.870983478444	0
0	1034	111.910873396037	1
0	1035	112.038127210394	0
0	1044	112.325121667156	1
0	1045	112.346195444692	0
0	1054	112.676929774764	1
0	1055	112.690101104923	0
0	1069	113.836127436432	1
0	1070	113.965785994994	0
0	1079	114.52759092254	1
0	1080	114.534876897242	0
0	1084	114.660725524265	1
0	1085	114.667882444614	0
0	1109	117.383994831848	1
0	1110	117.397575195861	0
0	1119	117.796473395713	1
0	1120	117.833346809324	0
0	1134	119.263526560951	1
0	1135	119.331919498554	0
0	1159	122.030738776902	1
0	1160	122.071793718231	0
0	1164	122.152201294542	1
0	1165	122.204799265603	0
0	1184	125.287204702043	1
0	1186	125.316123723937	2
0	1187	125.401846151009	1
0	1190	125.534851698381	0
0	1256	134.191100137354	1
0	1257	134.242291961082	0
0	1275	137.348058134481	1
0	1276	137.361241190086	0
0	1280	137.479870439451	1
0	1281	137.494246737458	0
0	1285	137.587763094625	1
0	1286	137.62725228483	0
0	1320	142.033857913085	1
0	1321	142.062344021272	0
0	1335	143.469269136008	1
0	1336	143.539964014379	0
0	1370	146.857269047362	1
0	1371	146.945456623324	0
0	1385	149.598940628599	1
0	1386	149.640729668596	0
0	1395	150.406576455284	1
0	1396	150.428787717351	0
0	1410	152.482759538642	1
0	1411	152.498071293398	0
0	1415	152.538627188484	1
0	1416	152.63107684077	0
0	1440	155.133617330129	1
0	1441	155.21293457812	0
0	1490	162.427797406554	1
0	1491	162.529694709929	0
0	1500	164.393893083371	1
0	1501	164.502238096226	0
0	1507	164.756016800092	1
0	1508	164.830859803279	0
0	1511	164.8756864387	1
0	1513	164.920003243115	2
0	1514	164.963865350651	1
0	1517	165.096870898023	0
0	1531	166.75434241493	1
0	1532	166.788514489968	0
0	1536	166.814966697338	1
0	1537	166.92152003734	0
0	1551	168.371196054882	1
0	1552	168.409283043718	0
0	1556	168.516440458279	1
0	1557	168.54228859109	0
0	1611	173.953280262453	1
0	1612	174.029093477172	0
0	1626	174.847529240435	1
0	1627	174.961854941918	0
0	1636	175.849587699607	1
0	1637	175.958708225299	0
0	1641	175.967353044644	1
0	1642	176.091713772671	0
0	1666	179.56524536924	1
0	1667	179.589122105138	0
0	1676	179.804779304742	1
0	1678	179.883471788923	2
0	1679	179.897522403051	1
0	1682	180.030527950423	0
0	1686	180.087214315361	1
0	1687	180.163533497795	0
0	1701	181.174939924617	1
0	1702	181.202158722546	0
0	1716	183.291153388726	1
0	1718	183.371938078231	2
0	1719	183.413437533744	1
0	1723	183.427396187969	2
0	1724	183.546443081116	1
0	1727	183.679448628488	0
0	1751	186.51698836234	1
0	1752	186.583716454166	0
0	1802	192.301574654109	1
0	1804	192.339782205317	2
0	1805	192.378867623232	1
0	1808	192.511873170604	0
0	1822	193.500496720798	1
0	1824	193.590663409103	2
0	1825	193.625475260955	1
0	1828	193.758480808327	0
0	1862	198.497689462447	1
0	1863	198.541755954828	0
0	1887	202.819031560453	1
0	1889	202.872285534469	2
0	1890	202.890368866657	1
0	1893	203.023374414029	0
0	1897	203.053032485276	1
0	1898	203.156379961401	0
0	1967	210.763471643061	1
0	1968	210.781297194694	0
0	1972	210.83136296619	1
0	1973	210.914302742066	0
0	1977	211.042512708673	1
0	1978	211.047308289438	0
0	1982	211.078381252624	1
0	1983	211.18031383681	0
0	2009	212.788093743101	1
0	2010	212.906468198259	0
0	2013	213.000137927809	1
0	2014	213.039473745631	0
0	2053	218.007362438075	1
0	2054	218.086234659282	0
0	2108	222.632882692691	1
0	2109	222.731789727346	0
0	2123	223.68441709075	1
0	2124	223.693383720583	0
0	2163	234.61531587484	1
0	2164	234.677959904968	0
0	2208	239.602239997223	1
0	2210	239.605056635204	2
0	2211	239.67382126423	1
0	2215	239.734588700664	2
0	2216	239.806826811602	1
0	2219	239.939832358974	0
0	2260	243.934473793083	1
0	2261	243.994409368192	0
0	2269	244.4682546921	1
0	2270	244.469172556351	0
0	2284	245.486633578921	1
0	2286	245.583186470457	2
0	2287	245.615619594958	1
0	2291	245.672924779017	2
0	2293	245.690071681855	3
0	2294	245.74862514233	2
0	2297	245.881630689702	1
0	2301	245.88859332483	2
0	2302	246.014636237074	1
0	2305	246.147641784446	0
0	2309	246.235731733302	1
0	2310	246.280647331818	0
0	2359	251.485593533714	1
0	2360	251.490652745538	0
0	2384	252.699637661081	1
0	2385	252.731657069871	0
0	2404	255.529985604692	1
0	2405	255.561749747246	0
0	2439	257.679490405298	1
0	2440	257.756216306752	0
0	2444	257.838084859923	1
0	2445	257.889221854124	0
0	2454	258.124074132995	1
0	2456	258.129997663986	2
0	2457	258.161304871555	1
0	2461	258.18217108301	2
0	2462	258.294310418927	1
0	2465	258.427315966299	0
0	2474	259.117985919681	1
0	2476	259.123714663681	2
0	2477	259.219697561369	1
0	2481	259.265639889301	2
0	2483	259.306311569848	3
0	2484	259.352703108741	2
0	2487	259.485708656113	1
0	2491	259.604360783884	2
0	2492	259.618714203485	1
0	2496	259.714028191924	2
0	2498	259.729306808573	3
0	2500	259.732631229811	4
0	2501	259.751719750857	3
0	2504	259.884725298229	2
0	2507	260.017730845601	1
0	2512	260.346352552654	0
0	2540	263.085798342496	1
0	2541	263.196057648117	0
0	2550	263.887522332286	1
0	2551	264.005813825667	0
0	2560	264.664454656778	1
0	2561	264.759088486611	0
0	2565	264.849381511757	1
0	2566	264.892094033983	0
0	2570	264.977256324422	1
0	2571	265.025099581355	0
0	2580	265.358405954478	1
0	2581	265.455606340236	0
0	2585	265.521116743964	1
0	2586	265.588611887608	0
0	2600	267.547663731375	1
0	2601	267.672662632208	0
0	2610	268.249421217964	1
0	2611	268.264287111901	0
0	2615	268.393290347859	1
0	2616	268.397292659273	0
0	2620	268.421311280363	1
0	2621	268.530298206645	0
0	2655	272.053371017967	1
0	2656	272.184898831345	0
0	2665	272.750570978805	1
0	2666	272.751439765841	0
0	2695	275.681873753565	1
0	2696	275.696269295525	0
0	2740	281.025597502501	1
0	2741	281.155892603946	0
0	2781	286.014040736933	1
0	2782	286.043803096687	0
0	2791	286.345555901518	1
0	2792	286.363057330295	0
0	2816	290.079396961975	1
0	2817	290.129057527621	0
0	2841	293.25858250198	1
0	2842	293.364570004206	0
0	2846	293.460936747819	1
0	2847	293.497575551578	0
0	2851	293.578414255208	1
0	2852	293.63058109895	0
0	2866	294.869226057772	1
0	2867	294.882214099144	0
0	2891	297.665226333735	1
0	2893	297.696879822416	2
0	2894	297.711140325255	1
0	2897	297.844145872627	0
0	2916	298.912150225156	1
0	2917	298.913707116591	0
0	2921	298.917652429044	1
0	2922	299.046712663963	0
0	2946	301.333053088329	1
0	2947	301.452283953938	0
0	2976	303.907011040715	1
0	2977	303.997121797403	0
0	3037	310.233466012782	1
0	3038	310.268714308262	0
0	3047	311.44376219638	1
0	3048	311.521550865563	0
0	3057	312.144145748627	1
0	3058	312.216857486144	0
0	3067	312.795866375702	1
0	3068	312.836427191209	0
0	3087	314.177750452214	1
0	3088	314.24196642564	0
0	3092	314.248436219184	1
0	3093	314.374971973012	0
0	3102	314.705933219743	1
0	3103	314.832893139213	0
0	3117	315.812723630352	1
0	3118	315.846618238023	0
0	3127	316.215447472375	1
0	3129	316.284176148438	2
0	3130	316.302554525327	1
0	3133	316.435560072699	0
0	3137	316.526445963009	1
0	3138	316.568565620071	0
0	3142	316.656078695605	1
0	3143	316.701571167443	0
0	3202	327.115461874149	1
0	3204	327.179478588858	2
0	3205	327.2456320713	1
0	3208	327.378637618672	0
0	3227	328.87823905659	1
0	3228	328.897110008142	0
0	3237	329.823095468324	1
0	3238	329.909249215004	0
0	3264	333.737167080186	1
0	3266	333.767183054995	2
0	3268	333.807950586127	3
0	3269	333.902618033275	2
0	3271	334.035623580647	1
0	3274	334.168629128019	0
0	3288	335.259593029892	1
0	3290	335.309563308355	2
0	3291	335.392519586489	1
0	3294	335.525525133861	0
0	3338	341.003960080264	1
0	3340	341.065163092065	2
0	3341	341.065467034069	1
0	3344	341.198472581441	0
0	3388	346.006556204071	1
0	3389	346.133630944315	0
0	3398	346.519817688371	1
0	3400	346.570282345425	2
0	3401	346.575983006828	1
0	3404	346.7089885542	0
0	3443	350.545445685668	1
0	3444	350.585686599086	0
0	3458	353.053045202727	1
0	3459	353.134601689209	0
0	3503	356.290306565947	1
0	3504	356.363371247173	0
0	3544	361.694909877415	1
0	3545	361.716695725758	0
0	3584	367.822617957446	1
0	3585	367.854188793941	0
0	3594	368.737458412658	1
0	3595	368.822421092385	0
0	3599	368.875963569862	1
0	3600	368.955426639757	0
0	3604	369.051833179118	1
0	3605	369.088432187129	0
0	3609	369.130579637406	1
0	3610	369.221437734501	0
0	3624	371.076191791449	1
0	3625	371.103885982971	0
0	3644	373.985989202933	1
0	3645	374.041679283585	0
0	3649	374.119574815612	1
0	3650	374.174684830957	0
0	3659	374.652628082485	1
0	3660	374.78018759927	0
0	3674	376.453768672876	1
0	3675	376.546467783421	0
0	3699	377.817589966857	1
0	3700	377.913100909703	0
0	3724	380.092211346029	1
0	3725	380.114391036954	0
0	3729	380.176499236743	1
0	3730	380.247396584326	0
0	3734	380.270049708811	1
0	3735	380.380402131698	0
0	3739	380.431408241421	1
0	3740	380.51340767907	0
0	3780	385.316885819611	1
0	3782	385.342460477958	2
0	3784	385.35653085186	3
0	3785	385.41427501683	2
0	3788	385.547280564202	1
0	3791	385.680286111574	0
0	3850	392.77155113858	1
0	3851	392.872318046332	0
0	3855	392.878338733232	1
0	3857	392.890952332296	2
0	3859	392.908847149375	3
0	3860	393.005323593704	2
0	3863	393.138329141076	1
0	3866	393.271334688448	0
0	3870	393.389252855752	1
0	3871	393.40434023582	0
0	3875	393.500414002822	1
0	3876	393.537345783192	0
0	3890	394.406524085485	1
0	3891	394.529294423804	0
0	4000	412.089007769801	1
0	4001	412.190400370257	0
0	4015	412.784656436324	1
0	4018	413.087495674951	0
0	4031	414.461767112001	1
0	4032	414.51981371144	0
0	4041	415.483736043211	1
0	4043	415.488844939819	2
0	4044	415.532699908877	1
0	4047	415.665705456249	0
0	4051	415.690387312003	1
0	4052	415.798711003621	0
0	4056	415.805587721684	1
0	4057	415.931716550993	0
0	4121	420.752754856569	1
0	4122	420.784896598397	0
0	4186	432.628238929709	1
0	4188	432.686756769067	2
0	4189	432.743561612375	1
0	4192	432.876567159747	0
0	4211	434.055321691605	1
0	4212	434.145937182512	0
0	4221	434.380167190862	1
0	4223	434.432985374778	2
0	4224	434.501299018248	1
0	4227	434.63430456562	0
0	4287	438.786797740126	1
0	4288	438.884727212772	0
0	4297	440.130350052861	1
0	4298	440.198318817815	0
0	4307	441.069263004627	1
0	4308	441.186143925082	0
0	4337	446.990164208474	1
0	4338	447.077494775908	0
0	4402	455.212495369279	1
0	4403	455.327781747104	0
0	4442	459.686108673162	1
0	4443	459.77817777006	0
0	4472	462.073116211722	1
0	4473	462.169303628678	0
0	4497	465.582305042496	1
0	4498	465.617236047487	0
0	4507	465.855731517299	1
0	4508	465.951271080384	0
0	4519	466.530193159556	1
0	4520	466.599115857452	0
0	4553	470.904966732225	1
0	4554	470.918301325312	0
0	4563	471.316041593427	1
0	4564	471.382880368029	0
0	4573	472.73482457458	1
0	4575	472.853441257238	2
0	4576	472.866307058312	1
0	4579	472.999312605684	0
0	4583	473.022923188287	1
0	4584	473.132318153056	0
0	4603	476.974806222649	1
0	4605	476.985626425598	2
0	4606	477.012572373878	1
0	4609	477.14557792125	0
0	4618	478.245725636988	1
0	4619	478.254471909621	0
0	4633	478.745941969171	1
0	4634	478.763542295578	0
0	4663	482.149626325833	1
0	4664	482.268261466065	0
0	4678	483.088626517605	1
0	4679	483.146195146765	0
0	4683	483.19052475106	1
0	4684	483.279200694137	0
0	4708	485.200039370035	1
0	4709	485.283373645504	0
0	4718	485.818653461981	1
0	4720	485.825028401532	2
0	4721	485.924472724119	1
0	4724	486.057478271491	0
0	4770	490.959506847366	1
0	4772	491.003357345848	2
0	4773	491.084381291182	1
0	4775	491.217386838554	0
0	4779	491.22432026524	1
0	4780	491.350392385926	0
0	4789	491.650436741354	1
0	4790	491.779297312436	0
0	4799	493.017727015497	1
0	4800	493.088144642277	0
0	4804	493.138426766745	1
0	4805	493.221150189649	0
0	4869	503.722666753341	1
0	4870	503.746414116145	0
0	4874	503.787672622638	1
0	4875	503.879419663517	0
0	4889	506.202115417774	1
0	4890	506.291830743977	0
0	4894	506.304472527003	1
0	4895	506.424836291349	0
0	4899	506.493569021424	1
0	4900	506.557841838721	0
0	4949	512.013820399544	1
0	4950	512.047889273543	0
0	4954	512.060013302296	1
0	4955	512.180894820915	0
0	4969	513.038026579029	1
0	4970	513.040829683742	0
0	4979	513.707071799882	1
0	4980	513.750986971281	0
0	4989	514.874519524568	1
0	4990	514.950655342663	0
0	5009	516.200766801482	1
0	5010	516.309799597783	0
0	5025	517.841841526222	1
0	5026	517.851913622166	0
0	5035	519.213411430928	1
0	5036	519.279118268567	0
0	5040	519.332450997597	1
0	5041	519.412123815939	0
0	5055	520.406389408617	1
0	5056	520.461966218133	0
0	5070	522.614801285139	1
0	5071	522.642597445831	0
0	5080	523.590740094532	1
0	5082	523.602660313435	2
0	5084	523.631287372684	3
0	5085	523.718343391823	2
0	5088	523.851348939195	1
0	5091	523.984354486567	0
0	5115	527.103403310456	1
0	5116	527.202708527782	0
0	5120	527.265337402398	1
0	5121	527.335714075154	0
0	5130	527.575611518304	1
0	5131	527.657084761483	0
0	5145	528.067072280372	1
0	5146	528.092663248097	0
0	5170	531.927974976367	1
0	5171	532.007071982936	0
0	5195	534.062416884913	1
0	5196	534.07847162285	0
0	5210	535.812872552536	1
0	5211	535.826038172179	0
0	5215	535.955155557195	1
0	5216	535.959043719551	0
0	5235	537.455746947755	1
0	5236	537.459328172747	0
0	5245	538.230323826193	1
0	5246	538.275975948093	0
0	5250	538.328951860902	1
0	5251	538.408981495465	0
0	5270	540.371452542889	1
0	5273	540.662811966332	0
0	5326	545.035691092509	1
0	5327	545.117355400251	0
0	5341	547.530079136991	1
0	5342	547.589984607671	0
0	5346	547.701013953247	1
0	5347	547.722990155043	0
0	5361	548.850858479231	1
0	5362	548.870972610158	0
0	5421	557.831447989083	1
0	5422	557.926295191881	0
0	5436	559.861127267533	1
0	5438	559.871060065974	2
0	5439	559.918616126881	1
0	5442	560.051621674253	0
0	5446	560.171973262158	1
0	5447	560.184627221625	0
0	5461	561.783460674091	1
0	5462	561.788960823707	0
0	5481	564.280652831712	1
0	5482	564.298446940526	0
0	5486	564.397488729478	1
0	5487	564.431452487898	0
0	5506	565.284027346989	1
0	5507	565.393573429825	0
0	5523	567.377367170943	1
0	5524	567.524062761486	0
0	5527	567.631834356345	1
0	5528	567.657068308858	0
0	5532	567.705657490338	1
0	5533	567.79007385623	0
0	5542	568.548567801755	1
0	5543	568.551710745709	0
0	5547	568.634529488039	1
0	5549	568.680577554355	2
0	5550	568.684716293081	1
0	5553	568.817721840453	0
0	5567	569.780722589299	1
0	5568	569.84345875826	0
0	5592	572.416231663874	1
0	5593	572.455985035603	0
0	5762	590.486099848744	1
0	5763	590.539963284942	0
0	5778	593.717435338526	1
0	5780	593.777777765205	2
0	5781	593.828300130208	1
0	5784	593.96130567758	0
0	5828	598.175108739323	1
0	5829	598.189037907994	0
0	5918	610.319407093827	1
0	5919	610.343907805725	0
0	5928	611.285036229667	1
0	5929	611.385490706774	0
0	5948	612.482409933526	1
0	5949	612.606686519099	0
0	5953	612.720688077234	1
0	5955	612.731321982846	2
0	5956	612.739692066471	1
0	5959	612.872697613843	0
0	5973	614.15140335036	1
0	5974	614.218252208444	0
0	5978	614.290956553252	1
0	5979	614.351257755816	0
0	6003	616.61391852552	1
0	6004	616.632392217997	0
0	6023	617.606457248622	1
0	6026	617.895156750513	0
0	6029	617.985434881005	1
0	6030	618.028162297885	0
0	6049	620.368988078646	1
0	6050	620.443966450539	0
0	6054	620.492061276039	1
0	6055	620.576971997911	0
0	6064	621.366597552897	1
0	6066	621.37247679333	2
0	6067	621.375068387367	1
0	6071	621.409905455229	2
0	6072	621.508073934739	1
0	6075	621.641079482111	0
0	6099	623.769923196712	1
0	6100	623.792114773798	0
0	6104	623.920635581407	1
0	6105	623.92512032117	0
0	6134	627.497236103623	1
0	6136	627.519928598299	2
0	6137	627.607897805902	1
0	6140	627.740903353274	0
0	6149	628.243994495074	1
0	6150	628.31879634797	0
0	6159	630.291188801782	1
0	6161	630.302309160051	2
0	6162	630.302452878176	1
0	6165	630.435458425548	0
0	6169	630.546369181464	1
0	6170	630.56846397292	0
0	6194	635.016602381684	1
0	6195	635.039640481212	0
0	6229	638.92726827284	1
0	6230	638.999143774608	0
0	6234	639.031629894281	1
0	6235	639.13214932198	0
0	6249	640.183050076743	1
0	6250	640.306486418697	0
0	6264	640.648018914089	1
0	6266	640.713305075485	2
0	6267	640.765560969393	1
0	6270	640.898566516765	0
0	6276	641.111028881576	1
0	6277	641.227188223818	0
0	6280	641.275395984009	1
0	6281	641.36019377119	0
0	6290	642.054748083059	1
0	6291	642.105474180151	0
0	6305	644.060350603702	1
0	6306	644.062516874306	0
0	6335	646.812662886549	1
0	6336	646.866304995949	0
0	6370	651.260879734666	1
0	6371	651.346967395891	0
0	6375	651.411089819071	1
0	6376	651.479972943263	0
0	6395	653.509784957674	1
0	6396	653.638909068287	0
0	6400	653.660346757603	1
0	6401	653.771914615659	0
0	6450	657.910968830958	1
0	6452	657.98561047538	2
0	6453	658.029519814541	1
0	6456	658.162525361913	0
0	6470	659.87468999162	1
0	6471	659.99102657598	0
0	6480	660.696210853773	1
0	6482	660.748986722221	2
0	6483	660.806257037758	1
0	6486	660.93926258513	0
0	6500	661.624160100202	1
0	6502	661.698377127656	2
0	6504	661.732221076104	3
0	6505	661.734408689586	2
0	6508	661.867414236958	1
0	6511	662.00041978433	0
0	6515	662.087992437257	1
0	6516	662.133425331702	0
0	6531	663.889677962894	1
0	6532	663.991637070217	0
0	6561	666.038685102539	1
0	6562	666.087045375279	0
0	6571	667.079560242724	1
0	6572	667.155055687591	0
0	6586	668.773851921676	1
0	6587	668.834509873122	0
0	6596	669.223159487561	1
0	6597	669.229206228132	0
0	6606	669.747941466182	1
0	6607	669.785631585781	0
0	6611	669.890030465486	1
0	6612	669.918637133153	0
0	6621	670.226686505873	1
0	6622	670.331811201574	0
0	6626	670.404510068687	1
0	6627	670.464816748946	0
0	6661	673.413352747752	1
0	6662	673.525377972122	0
0	6676	674.290651742185	1
0	6677	674.423628446829	0
0	6681	674.474565123996	1
0	6682	674.556633994201	0
0	6691	675.090457924437	1
0	6692	675.112911593354	0
0	6696	675.205956881221	1
0	6697	675.245917140726	0
0	6741	678.389413165995	1
0	6742	678.428898301111	0
0	6812	684.556873289374	1
0	6813	684.615649635633	0
0	6842	686.888558318732	1
0	6843	687.019335190713	0
0	6847	687.130383725689	1
0	6848	687.152340738085	0
0	6852	687.200829582654	1
0	6853	687.285346285457	0
0	6857	687.417025666208	1
0	6858	687.418351832829	0
0	6907	692.553021880094	1
0	6908	692.612598846713	0
0	6937	696.361448127134	1
0	6938	696.487575093927	0
0	6947	697.107253669178	1
0	6948	697.11803979168	0
0	6952	697.231170330392	1
0	6953	697.251045339052	0
0	6972	698.903536283684	1
0	6973	698.95734077046	0
0	6982	699.599099044189	1
0	6983	699.635914931053	0
0	6992	700.109632936764	1
0	6994	700.169287996434	2
0	6996	700.202712852333	3
0	6997	700.228751234441	2
0	7000	700.361756781813	1
0	7004	700.405795866656	2
0	7006	700.4532301053	3
0	7007	700.494762329185	2
0	7011	700.496171217683	3
0	7013	700.538042331292	4
0	7014	700.627767876557	3
0	7017	700.760773423929	2
0	7020	700.893778971301	1
0	7023	701.026784518673	0
0	7033	701.673368366335	1
0	7034	701.687920320486	0
0	7073	705.819580354568	1
0	7074	705.85962618607	0
0	7078	705.871509288426	1
0	7079	705.992631733442	0
0	7088	706.441784494695	1
0	7089	706.540065559209	0
0	7098	707.162845961632	1
0	7099	707.233630112236	0
0	7133	713.031512964094	1
0	7134	713.135834565792	0
0	7178	718.736949346953	1
0	7179	718.85452842147	0
0	7188	719.494754520449	1
0	7189	719.590212666938	0
0	7203	719.937061862609	1
0	7204	720.004398661611	0
0	7208	720.060912937955	1
0	7209	720.137404208983	0
0	7218	721.414286868201	1
0	7219	721.526295423994	0
0	7268	728.74186077993	1
0	7269	728.811407892029	0
0	7273	728.877153473093	1
0	7274	728.944413439401	0
0	7278	729.071419146895	1
0	7281	729.273035146454	0
0	7294	730.255393343868	1
0	7295	730.287321365018	0
0	7299	730.355396722271	1
0	7300	730.42032691239	0
0	7304	730.534246559054	1
0	7305	730.553332459762	0
0	7329	732.326470698786	1
0	7330	732.380608955918	0
0	7334	732.384104453998	1
0	7336	732.470038132469	2
0	7337	732.51361450329	1
0	7341	732.52954413095	2
0	7342	732.646620050662	1
0	7345	732.779625598034	0
0	7349	732.909150991437	1
0	7350	732.912631145406	0
0	7354	732.994518824187	1
0	7356	733.02890445471	2
0	7357	733.045636692778	1
0	7360	733.17864224015	0
0	7379	734.269336459991	1
0	7380	734.286837455217	0
0	7389	735.458471385711	1
0	7390	735.551964867125	0
0	7399	735.892627095054	1
0	7401	735.910982317267	2
0	7402	735.931081860911	1
0	7406	735.994737368929	2
0	7408	736.033106536249	3
0	7409	736.064087408283	2
0	7413	736.174558865072	3
0	7414	736.197092955655	2
0	7417	736.330098503027	1
0	7420	736.463104050399	0
0	7424	736.513146134022	1
0	7426	736.55860932411	2
0	7427	736.596109597771	1
0	7430	736.729115145143	0
0	7464	740.886837476216	1
0	7465	740.904234455378	0
0	7484	742.016981308486	1
0	7485	742.040937192363	0
0	7504	744.631929903916	1
0	7505	744.687397024588	0
0	7509	744.715752895462	1
0	7510	744.82040257196	0
0	7514	744.898780998122	1
0	7515	744.953408119332	0
0	7524	745.191063855696	1
0	7525	745.303470067205	0
0	7531	745.501201091629	1
0	7532	745.632091774258	0
0	7565	749.591279912908	1
0	7566	749.659418234686	0
0	7595	751.809509975094	1
0	7596	751.888881978571	0
0	7615	753.73524747136	1
0	7616	753.78276905481	0
0	7620	753.9098537714	1
0	7621	753.915774602182	0
0	7640	755.217267609475	1
0	7641	755.221321436291	0
0	7645	755.251408942789	1
0	7646	755.354326983663	0
0	7690	759.506203922492	1
0	7691	759.52987937123	0
0	7695	759.623886005279	1
0	7696	759.662884918602	0
0	7700	759.682492426853	1
0	7702	759.775950949296	2
0	7703	759.795890465974	1
0	7706	759.928896013346	0
0	7710	759.950922159556	1
0	7711	760.061901560718	0
0	7755	767.178069879003	1
0	7756	767.240411257209	0
0	7821	775.0169703797	1
0	7822	775.033180979234	0
0	7831	776.953633685006	1
0	7832	777.046506608834	0
0	7861	782.035760729996	1
0	7862	782.048842281118	0
0	7901	789.064429568036	1
0	7903	789.113441786073	2
0	7904	789.191551687089	1
0	7907	789.324557234461	0
0	7931	791.119913250784	1
0	7932	791.200185392045	0
0	7956	792.955903402141	1
0	7957	792.983215444199	0
0	7961	793.113186620142	1
0	7962	793.116220991571	0
0	7971	793.678002608383	1
0	7972	793.763919302484	0
0	7981	794.187778641527	1
0	7983	794.237341756754	2
0	7984	794.319663520409	1
0	7987	794.452669067781	0
0	8057	802.267939629136	1
0	8058	802.357536576754	0
0	8067	802.894595365759	1
0	8068	802.943347601868	0
0	8072	803.027047083335	1
0	8073	803.07635314924	0
0	8077	803.161982629369	1
0	8078	803.209358696612	0
0	8082	803.253750546862	1
0	8083	803.342364243984	0
0	8097	803.81408830288	1
0	8098	803.884276421018	0
0	8112	806.38300707275	1
0	8113	806.490099169722	0
0	8127	807.226187918625	1
0	8128	807.354449773394	0
0	8222	816.853183155661	1
0	8223	816.953681153377	0
0	8227	817.06840044238	1
0	8228	817.086686700749	0
0	8242	818.248858139921	1
0	8244	818.258209096413	2
0	8246	818.305548033706	3
0	8247	818.343657836638	2
0	8250	818.47666338401	1
0	8253	818.609668931382	0
0	8272	819.673696221746	1
0	8273	819.718953331706	0
0	8284	820.829838168018	1
0	8285	820.849383512016	0
0	8318	826.798770875072	1
0	8319	826.860316280901	0
0	8333	827.547647176889	1
0	8334	827.627751094393	0
0	8343	827.941855023119	1
0	8345	827.964779038616	2
0	8346	828.002989644784	1
0	8349	828.135995192156	0
0	8368	829.252068431589	1
0	8369	829.277919927345	0
0	8398	831.827531920236	1
0	8399	831.865639770514	0
0	8433	835.795089441371	1
0	8434	835.837320023324	0
0	8468	838.292460185701	1
0	8469	838.40470412019	0
0	8493	841.984676205056	1
0	8494	842.045469992071	0
0	8574	851.440376358048	1
0	8575	851.509637304747	0
0	8604	853.569666390672	1
0	8605	853.685443555709	0
0	8614	854.440462120745	1
0	8615	854.440968761937	0
0	8659	858.890822336836	1
0	8660	858.982726501401	0
0	8669	860.299995033108	1
0	8670	860.361658665544	0
0	8699	863.665966136615	1
0	8700	863.677951387666	0
0	8724	866.505297894733	1
0	8725	866.540496117214	0
0	8764	870.528893838816	1
0	8765	870.5833387513	0
0	8769	870.677213686633	1
0	8770	870.716344298672	0
0	8786	871.765343983428	1
0	8787	871.813289440434	0
0	8800	872.464745497141	1
0	8801	872.511346076958	0
0	8805	872.61763613264	1
0	8806	872.64435162433	0
0	8815	873.09470330419	1
0	8816	873.11455002948	0
0	8820	873.116825759461	1
0	8821	873.247555576852	0
0	8830	873.498508794843	1
0	8831	873.531658533828	0
0	8855	878.525122696282	1
0	8856	878.534829479946	0
0	8870	880.967408467919	1
0	8871	881.008641907471	0
0	8910	884.73824689061	1
0	8911	884.835968320049	0
0	8935	887.110103357862	1
0	8936	887.228022462345	0
0	8965	889.270853342275	1
0	8966	889.368628313711	0
0	8975	891.302331282186	1
0	8976	891.425501805848	0
0	8980	891.451170830728	1
0	8982	891.499399543773	2
0	8983	891.55850735322	1
0	8987	891.685658161513	2
0	8988	891.691512900592	1
0	8991	891.824518447964	0
0	9025	896.938206753472	1
0	9026	897.044119457456	0
0	9076	901.700357479501	1
0	9077	901.773588811438	0
0	9086	902.515893076855	1
0	9088	902.545785430535	2
0	9089	902.624410480795	1
0	9092	902.757416028167	0
0	9106	903.419635047355	1
0	9107	903.522670377126	0
0	9116	904.632414875385	1
0	9117	904.644883602721	0
0	9146	908.686264246853	1
0	9147	908.777170306316	0
0	9201	913.939673355627	1
0	9202	914.036114748626	0
0	9206	914.12993426619	1
0	9207	914.169120295998	0
0	9211	914.194898028432	1
0	9212	914.30212584337	0
0	9216	914.426762475151	1
0	9217	914.435131390742	0
0	9241	916.430107500444	1
0	9242	916.492093979889	0
0	9256	918.449493519517	1
0	9258	918.481319002945	2
0	9260	918.507043745209	3
0	9261	918.534169335671	2
0	9264	918.667174883043	1
0	9267	918.800180430415	0
0	9271	918.811390555096	1
0	9272	918.933185977787	0
0	9288	922.071823093119	1
0	9289	922.154313850198	0
0	9312	925.112108309417	1
0	9313	925.158103980073	0
0	9322	925.606079555001	1
0	9323	925.689912944702	0
0	9327	925.756471335506	1
0	9328	925.822918492074	0
0	9332	925.878176289695	1
0	9333	925.955924039446	0
0	9367	930.501475282666	1
0	9368	930.594171609106	0
0	9377	932.782155948231	1
0	9378	932.80033380922	0
0	9387	933.203898041448	1
0	9388	933.214600150351	0
0	9397	933.581355924154	1
0	9398	933.659119204811	0
0	9412	934.359396209942	1
0	9413	934.491938335135	0
0	9447	937.823973327879	1
0	9448	937.933088903759	0
0	9532	948.990754222538	1
0	9534	949.065264182035	2
0	9536	949.081587719429	3
0	9537	949.086371795692	2
0	9542	949.414993502745	1
0	9544	949.547999050117	0
0	9568	952.6807095929	1
0	9569	952.728661812783	0
0	9588	954.351646480608	1
0	9589	954.424858528465	0
0	9593	954.492235587554	1
0	9594	954.557864075837	0
0	9603	954.916895349059	1
0	9604	954.94349340326	0
0	9643	960.13202894535	1
0	9645	960.232884215783	2
0	9646	960.233778694282	1
0	9649	960.366784241654	0
0	9668	961.362534916728	1
0	9669	961.410489332638	0
0	9683	961.966519002761	1
0	9684	962.063769161595	0
0	9708	965.0378978273	1
0	9709	965.109944525693	0
0	9718	965.481267443827	1
0	9719	965.486796534782	0
0	9728	965.648694059526	1
0	9730	965.71643105135	2
0	9731	965.766047056186	1
0	9734	965.899052603558	0
0	9778	973.378462127843	1
0	9779	973.496552035839	0
0	9824	979.792121238753	1
0	9825	979.83586580061	0
0	9849	982.412428291973	1
0	9850	982.493772966792	0
0	9864	983.158884896416	1
0	9865	983.163377924347	0
0	9884	984.943175917679	1
0	9885	985.041562943592	0
0	9889	985.167131506353	1
0	9891	985.173167389569	2
0	9892	985.174568490964	1
0	9895	985.307574038336	0
0	9954	991.90991281232	1
0	9955	991.943888318183	0
0	9999	995.07552326762	1
0	10000	995.201296791487	0
0	10009	995.852975980585	1
0	10010	995.910447466132	0
0	10024	999.038493402963	1
0	10025	999.159499069583	0
1	5	0.245204962375	0.133005547372
1	10	0.421048444118	0.133005547372
1	17	0.843225590966	0.133005547372
1	20	0.976231138338	0.217020705835
1	25	2.217535229792	0.133005547372
1	30	2.420076927787	0.133005547372
1	35	2.726669553668	0.133005547372
1	40	3.372566784898	0.133005547372
1	45	3.75960431012	0.133005547372
1	50	4.28790216525	0.133005547372
1	55	4.481331775077	0.133005547372
1	60	4.832779134803	0.133005547372
1	65	5.5256355423	0.133005547372
1	70	6.997496690887	0.133005547372
1	75	7.166317371454	0.133005547372
1	80	7.65994440349	0.133005547372
1	85	7.910872842507	0.133005547372
1	92	10.343254066787	0.133005547372
1	97	10.476259614159	0.156555164275
1	100	10.609265161531	0.249973494629
1	105	10.800486974069	0.133005547372
1	112	11.010224771785	0.133005547372
1	117	11.143230319157	0.212873517722
1	120	11.276235866529	0.162562948656
1	125	11.452560941505	0.133005547372
1	130	12.0718510643	0.133005547372
1	135	12.381646593157	0.133005547372
1	140	13.628020509461	0.133005547372
1	147	14.001994790415	0.133005547372
1	150	14.135000337787	0.223827275998
1	157	14.409751100551	0.133005547372
1	160	14.542756647923	0.23356407904
1	165	14.976279589577	0.133005547372
1	170	15.412617865437	0.133005547372
1	175	15.877240794155	0.133005547372
1	186	16.430358766051	0.133005547372
1	189	16.563364313423	0.246111308089
1	194	16.696369860795	0.374424209845
1	199	16.829375408167	0.42644727549
1	202	16.962380955539	0.285425616201
1	207	17.095386502911	0.344709180242
1	210	17.228392050283	0.2261277158
1	217	17.659614648794	0.133005547372
1	220	17.792620196166	0.228000161275
1	225	18.418480840742	0.133005547372
1	230	19.153967655657	0.133005547372
1	237	20.001584562746	0.133005547372
1	240	20.134590110118	0.161045947125
1	245	20.781002659019	0.133005547372
1	250	21.096565838925	0.133005547372
1	256	21.514543808272	0.133005547372
1	261	22.041959022004	0.133005547372
1	272	22.659993067164	0.133005547372
1	275	22.792998614536	0.26191421945
1	280	22.926004161908	0.359034005713
1	283	23.05900970928	0.456841726272
1	286	23.192015256652	0.383614988871
1	291	23.628450730178	0.133005547372
1	298	24.880151841474	0.133005547372
1	303	25.013157388846	0.180337962407
1	306	25.146162936218	0.171457810315
1	311	25.490358377222	0.133005547372
1	316	25.840193828922	0.133005547372
1	321	26.404126367782	0.133005547372
1	326	28.139241423344	0.133005547372
1	331	28.505762966129	0.133005547372
1	336	29.044530222749	0.133005547372
1	341	29.41089051802	0.133005547372
1	346	29.596900867518	0.133005547372
1	351	29.910357369358	0.133005547372
1	356	30.048942293395	0.133005547372
1	361	30.189228004776	0.133005547372
1	366	31.022433149986	0.133005547372
1	371	32.235035375599	0.133005547372
1	378	33.985893917815	0.133005547372
1	381	34.118899465187	0.209049090856
1	386	34.842583429478	0.133005547372
1	391	35.171240704259	0.133005547372
1	396	35.413908458076	0.133005547372
1	401	36.104481380343	0.133005547372
1	406	36.30848011848	0.133005547372
1	413	36.551539802373	0.133005547372
1	416	36.684545349745	0.177966833385
1	423	37.336627996806	0.133005547372
1	426	37.469633544178	0.207624478705
1	431	38.107811581052	0.133005547372
1	436	38.246229078315	0.133005547372
1	441	38.416009101498	0.133005547372
1	446	38.620070558599	0.133005547372
1	451	39.179628098072	0.133005547372
1	458	40.861230187524	0.133005547372
1	461	40.994235734896	0.169477234697
1	466	42.174183019448	0.133005547372
1	471	42.731490607992	0.133005547372
1	476	43.079381488002	0.133005547372
1	481	43.255241823022	0.133005547372
1	486	45.01688326843	0.133005547372
1	491	45.373527090305	0.133005547372
1	496	45.671921358229	0.133005547372
1	501	45.81828197248	0.133005547372
1	507	46.239298965731	0.133005547372
1	512	46.618318840678	0.133005547372
1	521	46.824153553755	0.133005547372
1	524	46.957159101127	0.18987483825
1	527	47.090164648499	0.293324334809
1	532	47.408166063246	0.133005547372
1	537	47.722059538492	0.133005547372
1	542	48.039869992017	0.133005547372
1	547	48.174746337277	0.133005547372
1	552	49.68166700705	0.133005547372
1	557	49.88450424032	0.133005547372
1	562	50.106022809066	0.133005547372
1	567	50.337818653579	0.133005547372
1	574	52.318474074416	0.133005547372
1	577	52.451479621788	0.142916653176
1	582	53.282834121651	0.133005547372
1	587	53.887631924758	0.133005547372
1	592	54.926733724224	0.133005547372
1	597	56.249997728229	0.133005547372
1	602	56.446586806776	0.133005547372
1	607	59.163276918298	0.133005547372
1	612	60.139017981925	0.133005547372
1	617	62.311909474041	0.133005547372
1	622	62.87256120873	0.133005547372
1	629	64.056466775827	0.133005547372
1	632	64.189472323199	0.220553563692
1	637	64.832484027055	0.133005547372
1	644	65.749801222263	0.133005547372
1	647	65.882806769635	0.219783822017
1	652	67.011717494609	0.133005547372
1	657	68.367812816994	0.133005547372
1	662	68.705545354672	0.133005547372
1	667	68.860409731288	0.133005547372
1	672	69.249397287535	0.133005547372
1	677	69.465854839632	0.133005547372
1	682	69.962914632316	0.133005547372
1	689	71.479366615138	0.133005547372
1	692	71.61237216251	0.134453829815
1	699	71.845708247053	0.133005547372
1	702	71.978713794425	0.165142476554
1	707	73.023943611903	0.133005547372
1	714	73.340871733654	0.133005547372
1	717	73.473877281026	0.160032249903
1	722	74.334835621164	0.133005547372
1	727	75.297372473797	0.133005547372
1	732	75.548165346832	0.133005547372
1	737	75.828030236275	0.133005547372
1	742	76.662957124539	0.133005547372
1	747	77.571533732172	0.133005547372
1	752	77.864331655	0.133005547372
1	758	79.004454653213	0.133005547372
1	763	79.391971409262	0.133005547372
1	768	80.201827811308	0.133005547372
1	773	80.687045864698	0.133005547372
1	780	80.850317160022	0.133005547372
1	783	80.983322707394	0.145177954767
1	788	81.138125675386	0.133005547372
1	795	82.767518439592	0.133005547372
1	798	82.900523986964	0.154233626527
1	803	83.630289979239	0.133005547372
1	808	84.096430424478	0.133005547372
1	813	84.481770403347	0.133005547372
1	822	85.206196091357	0.133005547372
1	827	85.339201638729	0.246261861341
1	832	85.472207186101	0.293179289837
1	837	85.605212733473	0.347861206907
1	840	85.738218280845	0.373184998339
1	843	85.871223828217	0.286719284658
1	848	87.070175473534	0.133005547372
1	853	88.425209744554	0.133005547372
1	858	90.064524425547	0.133005547372
1	863	90.247095247796	0.133005547372
1	868	90.461417535624	0.133005547372
1	873	90.667577159724	0.133005547372
1	878	91.657505530153	0.133005547372
1	883	91.852099549804	0.133005547372
1	888	92.356885224312	0.133005547372
1	893	92.559855419992	0.133005547372
1	898	92.802415857471	0.133005547372
1	903	93.472910510651	0.133005547372
1	908	93.702755653793	0.133005547372
1	913	94.79810904595	0.133005547372
1	920	95.603231582041	0.133005547372
1	923	95.736237129413	0.151399158018
1	928	95.978889179749	0.133005547372
1	933	97.041473418221	0.133005547372
1	938	97.558755591426	0.133005547372
1	943	100.155252277646	0.133005547372
1	948	100.975843637822	0.133005547372
1	953	103.806231665457	0.133005547372
1	960	104.229526152642	0.133005547372
1	963	104.362531700014	0.245010119868
1	970	104.532939672264	0.133005547372
1	973	104.665945219636	0.222360688556
1	978	105.222297152041	0.133005547372
1	983	105.396135411278	0.133005547372
1	988	105.552270375275	0.133005547372
1	993	106.474469966294	0.133005547372
1	998	107.058343901906	0.133005547372
1	1003	107.94646919002	0.133005547372
1	1009	108.30283172701	0.133005547372
1	1014	110.01664863628	0.133005547372
1	1021	110.870983478444	0.133005547372
1	1024	111.003989025816	0.135296475189
1	1029	111.281328270543	0.133005547372
1	1036	112.038127210394	0.133005547372
1	1039	112.171132757766	0.260259361729
1	1046	112.346195444692	0.133005547372
1	1049	112.479200992064	0.154079324908
1	1056	112.690101104923	0.133005547372
1	1059	112.823106652295	0.146176877531
1	1064	113.196342901973	0.133005547372
1	1071	113.965785994994	0.133005547372
1	1074	114.098791542366	0.262664105934
1	1081	114.534876897242	0.133005547372
1	1086	114.667882444614	0.140291522074
1	1089	114.800887991986	0.140162467721
1	1094	115.764466922362	0.133005547372
1	1099	116.555572664921	0.133005547372
1	1104	116.925591584628	0.133005547372
1	1111	117.397575195861	0.133005547372
1	1114	117.530580743233	0.146585911385
1	1121	117.833346809324	0.133005547372
1	1124	117.966352356696	0.169878960983
1	1129	119.025255952949	0.133005547372
1	1136	119.331919498554	0.133005547372
1	1139	119.464925045926	0.201398484975
1	1144	119.828003501884	0.133005547372
1	1149	121.074523892184	0.133005547372
1	1154	121.836562711647	0.133005547372
1	1161	122.071793718231	0.133005547372
1	1166	122.204799265603	0.174060488701
1	1169	122.337804812975	0.185603518433
1	1174	124.407977684294	0.133005547372
1	1179	125.057069289014	0.133005547372
1	1188	125.401846151009	0.133005547372
1	1191	125.534851698381	0.247646996338
1	1194	125.667857245753	0.351733521816
1	1199	126.522669248758	0.133005547372
1	1204	126.881561072852	0.133005547372
1	1209	127.06974949703	0.133005547372
1	1214	127.597288079567	0.133005547372
1	1219	128.215771848435	0.133005547372
1	1224	128.513887250636	0.133005547372
1	1229	129.682346735438	0.133005547372
1	1234	129.850685925017	0.133005547372
1	1239	131.226235943901	0.133005547372
1	1244	132.193571326094	0.133005547372
1	1249	132.340661623437	0.133005547372
1	1254	134.046675801401	0.133005547372
1	1260	134.375297508454	0.1841973711
1	1265	134.972931056505	0.133005547372
1	1270	135.379403516212	0.133005547372
1	1277	137.361241190086	0.133005547372
1	1282	137.494246737458	0.146188602977
1	1287	137.62725228483	0.147381845379
1	1290	137.760257832202	0.172494737577
1	1295	138.699450832657	0.133005547372
1	1300	140.02302455486	0.133005547372
1	1305	140.536083463981	0.133005547372
1	1310	140.698722733444	0.133005547372
1	1315	141.456114040443	0.133005547372
1	1322	142.062344021272	0.133005547372
1	1325	142.195349568644	0.161491655559
1	1330	142.643958072423	0.133005547372
1	1337	143.539964014379	0.133005547372
1	1340	143.672969561751	0.203700425743
1	1345	143.880930510406	0.133005547372
1	1350	144.431892597603	0.133005547372
1	1355	145.378702944135	0.133005547372
1	1360	145.786985862916	0.133005547372
1	1365	146.617730771337	0.133005547372
1	1372	146.945456623324	0.133005547372
1	1375	147.078462170696	0.221193123334
1	1380	147.774696401464	0.133005547372
1	1387	149.640729668596	0.133005547372
1	1390	149.773735215968	0.174794587369
1	1397	150.428787717351	0.133005547372
1	1400	150.561793264723	0.155216809439
1	1405	150.919210911274	0.133005547372
1	1412	152.498071293398	0.133005547372
1	1417	152.63107684077	0.148317302128
1	1420	152.764082388142	0.225455199658
1	1425	153.291158774388	0.133005547372
1	1430	153.793908067989	0.133005547372
1	1435	154.864030801414	0.133005547372
1	1442	155.21293457812	0.133005547372
1	1445	155.345940125492	0.212322795363
1	1450	155.697558652657	0.133005547372
1	1455	156.862569205733	0.133005547372
1	1460	157.321038099444	0.133005547372
1	1465	158.133748400801	0.133005547372
1	1470	158.716659437907	0.133005547372
1	1475	158.893962044388	0.133005547372
1	1480	160.332053247396	0.133005547372
1	1485	161.084407560584	0.133005547372
1	1492	162.529694709929	0.133005547372
1	1495	162.662700257301	0.234902850747
1	1502	164.502238096226	0.133005547372
1	1505	164.635243643598	0.241350560227
1	1515	164.963865350651	0.207848550559
1	1518	165.096870898023	0.221184459323
1	1521	165.229876445395	0.30987320228
1	1526	165.873481134456	0.133005547372
1	1533	166.788514489968	0.133005547372
1	1538	166.92152003734	0.16717762241
1	1541	167.054525584712	0.239558887374
1	1546	168.018181973089	0.133005547372
1	1553	168.409283043718	0.133005547372
1	1558	168.54228859109	0.171092536208
1	1561	168.675294138462	0.158853680183
1	1566	169.11024557672	0.133005547372
1	1571	169.992553026411	0.133005547372
1	1576	170.647842537391	0.133005547372
1	1581	170.97006543581	0.133005547372
1	1586	171.143671829558	0.133005547372
1	1591	171.294348641627	0.133005547372
1	1596	172.362033583907	0.133005547372
1	1601	172.788872637051	0.133005547372
1	1606	173.134243157037	0.133005547372
1	1613	174.029093477172	0.133005547372
1	1616	174.162099024544	0.208818762091
1	1621	174.304152726111	0.133005547372
1	1628	174.961854941918	0.133005547372
1	1631	175.09486048929	0.247331248855
1	1638	175.958708225299	0.133005547372
1	1643	176.091713772671	0.242126073064
1	1646	176.224719320043	0.257366275399
1	1651	176.559465144198	0.133005547372
1	1656	178.040974005335	0.133005547372
1	1661	178.281413108071	0.133005547372
1	1668	179.589122105138	0.133005547372
1	1671	179.72212765251	0.15688228327
1	1680	179.897522403051	0.133005547372
1	1683	180.030527950423	0.225748645681
1	1688	180.163533497795	0.280061708872
1	1691	180.296539045167	0.209324729806
1	1696	180.914223023066	0.133005547372
1	1703	181.202158722546	0.133005547372
1	1706	181.335164269918	0.160224345301
1	1711	182.743012861907	0.133005547372
1	1720	183.413437533744	0.133005547372
1	1725	183.546443081116	0.25528969239
1	1728	183.679448628488	0.307510550257
1	1731	183.81245417586	0.385057987891
1	1736	185.69985917915	0.133005547372
1	1741	185.993538959753	0.133005547372
1	1746	186.255322384374	0.133005547372
1	1753	186.583716454166	0.133005547372
1	1756	186.716722001538	0.199733639198
1	1762	187.393585278668	0.133005547372
1	1767	188.272519737563	0.133005547372
1	1772	189.203153746218	0.133005547372
1	1777	190.090302449817	0.133005547372
1	1782	190.462678906645	0.133005547372
1	1787	191.305124119967	0.133005547372
1	1792	191.760080754926	0.133005547372
1	1797	191.945404481973	0.133005547372
1	1806	192.378867623232	0.133005547372
1	1809	192.511873170604	0.210298516495
1	1812	192.644878717976	0.305096512659
1	1817	193.21998324732	0.133005547372
1	1826	193.625475260955	0.133005547372
1	1829	193.758480808327	0.257984087529
1	1832	193.891486355699	0.300822946596
1	1837	194.820863994544	0.133005547372
1	1842	195.190972064752	0.133005547372
1	1847	195.60358937966	0.133005547372
1	1852	196.855727678852	0.133005547372
1	1857	197.388092882712	0.133005547372
1	1864	198.541755954828	0.133005547372
1	1867	198.6747615022	0.177072039753
1	1872	199.758224871795	0.133005547372
1	1877	200.335590344773	0.133005547372
1	1882	202.468385887108	0.133005547372
1	1891	202.890368866657	0.133005547372
1	1894	203.023374414029	0.204342853576
1	1899	203.156379961401	0.284094426932
1	1902	203.289385508773	0.236353023497
1	1907	204.566307886077	0.133005547372
1	1912	204.902750062791	0.133005547372
1	1917	205.445770893632	0.133005547372
1	1922	206.374384774482	0.133005547372
1	1927	206.838485774385	0.133005547372
1	1932	206.980242626606	0.133005547372
1	1937	207.359578214718	0.133005547372
1	1942	208.746817719767	0.133005547372
1	1947	209.236300090299	0.133005547372
1	1952	209.616271672339	0.133005547372
1	1957	210.369055590788	0.133005547372
1	1962	210.623217972685	0.133005547372
1	1969	210.781297194694	0.133005547372
1	1974	210.914302742066	0.150831099005
1	1979	211.047308289438	0.215945323248
1	1984	211.18031383681	0.137801128137
1	1987	211.313319384182	0.234938131558
1	1992	211.803418301749	0.133005547372
1	1997	211.93873053465	0.133005547372
1	2002	212.406899458345	0.133005547372
1	2007	212.710852038578	0.133005547372
1	2015	213.039473745631	0.25138000253
1	2018	213.172479293003	0.172341365194
1	2023	214.006250268823	0.133005547372
1	2028	214.241584558401	0.133005547372
1	2033	214.460510357226	0.133005547372
1	2038	215.777498436727	0.133005547372
1	2043	216.231019597717	0.133005547372
1	2048	216.929621144464	0.133005547372
1	2055	218.086234659282	0.133005547372
1	2058	218.219240206654	0.211877768579
1	2063	218.727531882453	0.133005547372
1	2068	218.884113849338	0.133005547372
1	2073	219.053841836982	0.133005547372
1	2078	219.57757330974	0.133005547372
1	2083	220.126051955252	0.133005547372
1	2088	220.808947180518	0.133005547372
1	2093	220.975572648834	0.133005547372
1	2098	222.123732321846	0.133005547372
1	2103	222.450569813692	0.133005547372
1	2110	222.731789727346	0.133005547372
1	2113	222.864795274718	0.231912582027
1	2118	223.317081348728	0.133005547372
1	2125	223.693383720583	0.133005547372
1	2128	223.826389267955	0.141972177205
1	2133	225.847616644757	0.133005547372
1	2138	226.455575840834	0.133005547372
1	2143	227.043177922573	0.133005547372
1	2148	227.704531364549	0.133005547372
1	2153	228.876272195846	0.133005547372
1	2158	231.138504619761	0.133005547372
1	2165	234.677959904968	0.133005547372
1	2168	234.81096545234	0.1956495775
1	2173	236.807168677801	0.133005547372
1	2178	237.346360615347	0.133005547372
1	2183	237.767930529963	0.133005547372
1	2188	238.428848816676	0.133005547372
1	2193	239.023598414105	0.133005547372
1	2198	239.240374366447	0.133005547372
1	2203	239.38382426735	0.133005547372
1	2212	239.67382126423	0.133005547372
1	2217	239.806826811602	0.204586814379
1	2220	239.939832358974	0.33477572377
1	2223	240.072837906346	0.338249205682
1	2228	240.217580133212	0.133005547372
1	2233	241.230079529734	0.133005547372
1	2238	241.574361565272	0.133005547372
1	2243	242.664675886612	0.133005547372
1	2248	242.858238407399	0.133005547372
1	2253	243.125679691561	0.133005547372
1	2258	243.798793208511	0.133005547372
1	2264	244.127414915564	0.192941122481
1	2271	244.469172556351	0.133005547372
1	2274	244.602178103723	0.133923411623
1	2279	245.421966141564	0.133005547372
1	2288	245.615619594958	0.133005547372
1	2295	245.74862514233	0.261991563409
1	2298	245.881630689702	0.298444219245
1	2303	246.014636237074	0.341711458057
1	2306	246.147641784446	0.457570102591
1	2311	246.280647331818	0.392054006988
1	2314	246.41365287919	0.177921145888
1	2319	246.954833197923	0.133005547372
1	2324	247.09081610782	0.133005547372
1	2329	247.728324423955	0.133005547372
1	2334	248.217713542295	0.133005547372
1	2339	248.520366928412	0.133005547372
1	2344	249.668218116914	0.133005547372
1	2349	250.2890438934	0.133005547372
1	2354	251.180449902995	0.133005547372
1	2361	251.490652745538	0.133005547372
1	2364	251.62365829291	0.138064759196
1	2369	252.013822658023	0.133005547372
1	2374	252.183750711757	0.133005547372
1	2379	252.368349991157	0.133005547372
1	2386	252.731657069871	0.133005547372
1	2389	252.864662617243	0.165024956162
1	2394	253.167162527162	0.133005547372
1	2399	254.963529795495	0.133005547372
1	2406	255.561749747246	0.133005547372
1	2409	255.694755294618	0.164769689926
1	2414	256.009212034287	0.133005547372
1	2419	256.36754681969	0.133005547372
1	2424	256.832550346079	0.133005547372
1	2429	257.004949980412	0.133005547372
1	2434	257.258183757501	0.133005547372
1	2441	257.756216306752	0.133005547372
1	2446	257.889221854124	0.209731448826
1	2449	258.022227401496	0.184142541573
1	2458	258.161304871555	0.133005547372
1	2463	258.294310418927	0.170236285932
1	2466	258.427315966299	0.297318302313
1	2469	258.560321513671	0.378150430661
1	2478	259.219697561369	0.133005547372
1	2485	259.352703108741	0.23471718906
1	2488	259.485708656113	0.361993992432
1	2493	259.618714203485	0.353074314184
1	2502	259.751719750857	0.445408181009
1	2505	259.884725298229	0.280364514345
1	2508	260.017730845601	0.303702653677
1	2511	260.150736392973	0.4214295844
1	2515	260.479358100026	0.746726870215
1	2520	260.645698553915	0.133005547372
1	2525	260.88973636417	0.133005547372
1	2530	261.257111418049	0.133005547372
1	2535	262.508728325301	0.133005547372
1	2542	263.196057648117	0.133005547372
1	2545	263.329063195489	0.243264852993
1	2552	264.005813825667	0.133005547372
1	2555	264.138819373039	0.251297040753
1	2562	264.759088486611	0.133005547372
1	2567	264.892094033983	0.227639377205
1	2572	265.025099581355	0.175718069598
1	2575	265.158105128727	0.180848804305
1	2582	265.455606340236	0.133005547372
1	2587	265.588611887608	0.23020593313
1	2590	265.72161743498	0.200500691016
1	2595	266.37402371146	0.133005547372
1	2602	267.672662632208	0.133005547372
1	2605	267.80566817958	0.258004448205
1	2612	268.264287111901	0.133005547372
1	2617	268.397292659273	0.147871441309
1	2622	268.530298206645	0.137007858786
1	2625	268.663303754017	0.241992473654
1	2630	268.816770051231	0.133005547372
1	2635	270.427123927971	0.133005547372
1	2640	270.878253385447	0.133005547372
1	2645	271.208659579803	0.133005547372
1	2650	271.743685477509	0.133005547372
1	2657	272.184898831345	0.133005547372
1	2660	272.317904378717	0.26453336075
1	2667	272.751439765841	0.133005547372
1	2670	272.884445313213	0.133874334408
1	2675	273.27686512936	0.133005547372
1	2680	273.456790976545	0.133005547372
1	2685	273.768973751205	0.133005547372
1	2690	274.224665616703	0.133005547372
1	2697	275.696269295525	0.133005547372
1	2700	275.829274842897	0.147401089332
1	2705	276.270618051295	0.133005547372
1	2710	276.701588411502	0.133005547372
1	2715	277.89360129903	0.133005547372
1	2720	278.416161715759	0.133005547372
1	2725	278.953951411107	0.133005547372
1	2730	280.630325009662	0.133005547372
1	2735	281.001133134301	0.133005547372
1	2742	281.155892603946	0.133005547372
1	2745	281.288898151318	0.263300648817
1	2750	281.991500950246	0.133005547372
1	2755	282.968131331457	0.133005547372
1	2760	284.348233780914	0.133005547372
1	2766	284.768383906377	0.133005547372
1	2771	285.037357137482	0.133005547372
1	2776	285.535370050989	0.133005547372
1	2783	286.043803096687	0.133005547372
1	2786	286.176808644059	0.162767907126
1	2793	286.363057330295	0.133005547372
1	2796	286.496062877667	0.150506976149
1	2801	287.150594284034	0.133005547372
1	2806	287.615025938224	0.133005547372
1	2811	289.386992012316	0.133005547372
1	2818	290.129057527621	0.133005547372
1	2821	290.262063074993	0.182666113018
1	2826	290.444114103235	0.133005547372
1	2831	291.131441633286	0.133005547372
1	2836	291.390199207315	0.133005547372
1	2843	293.364570004206	0.133005547372
1	2848	293.497575551578	0.238993049598
1	2853	293.63058109895	0.169644351131
1	2856	293.763586646322	0.185172391114
1	2861	294.436285907061	0.133005547372
1	2868	294.882214099144	0.133005547372
1	2871	295.015219646516	0.145993588744
1	2876	296.12189865012	0.133005547372
1	2881	296.586458663607	0.133005547372
1	2886	297.165878499959	0.133005547372
1	2895	297.711140325255	0.133005547372
1	2898	297.844145872627	0.178919538892
1	2901	297.977151419999	0.280271597583
1	2906	298.321448493263	0.133005547372
1	2911	298.777493072441	0.133005547372
1	2918	298.913707116591	0.133005547372
1	2923	299.046712663963	0.134562438807
1	2926	299.179718211335	0.262065782291
1	2931	299.637740884128	0.133005547372
1	2936	300.694661452609	0.133005547372
1	2941	301.165795415955	0.133005547372
1	2948	301.452283953938	0.133005547372
1	2951	301.58528950131	0.252236412981
1	2956	301.745944297484	0.133005547372
1	2961	302.361024000772	0.133005547372
1	2966	302.637445490473	0.133005547372
1	2971	303.305740497362	0.133005547372
1	2978	303.997121797403	0.133005547372
1	2981	304.130127344775	0.22311630406
1	2986	304.287358994685	0.133005547372
1	2991	304.842711704272	0.133005547372
1	2996	305.379571765869	0.133005547372
1	3001	305.72329891768	0.133005547372
1	3006	307.578552757699	0.133005547372
1	3011	308.046455555967	0.133005547372
1	3017	308.669667098316	0.133005547372
1	3022	309.782282290637	0.133005547372
1	3027	309.979931730168	0.133005547372
1	3032	310.134253465299	0.133005547372
1	3039	310.268714308262	0.133005547372
1	3042	310.401719855634	0.168253842852
1	3049	311.521550865563	0.133005547372
1	3052	311.654556412935	0.210794216555
1	3059	312.216857486144	0.133005547372
1	3062	312.349863033516	0.205717284889
1	3069	312.836427191209	0.133005547372
1	3072	312.969432738581	0.173566362879
1	3077	313.622573768363	0.133005547372
1	3082	313.923620647795	0.133005547372
1	3089	314.24196642564	0.133005547372
1	3094	314.374971973012	0.197221520798
1	3097	314.507977520384	0.2595413012
1	3104	314.832893139213	0.133005547372
1	3107	314.965898686585	0.259965466842
1	3112	315.173933029444	0.133005547372
1	3119	315.846618238023	0.133005547372
1	3122	315.979623785395	0.166900155043
1	3131	316.302554525327	0.133005547372
1	3134	316.435560072699	0.220112600324
1	3139	316.568565620071	0.284389471633
1	3144	316.701571167443	0.175125204434
1	3147	316.834576714815	0.17849801921
1	3152	317.474489120657	0.133005547372
1	3157	318.545194359112	0.133005547372
1	3162	319.344181851877	0.133005547372
1	3167	320.432932483514	0.133005547372
1	3172	320.797717639817	0.133005547372
1	3177	321.717723936563	0.133005547372
1	3182	323.341536271097	0.133005547372
1	3187	324.873833658978	0.133005547372
1	3192	325.525518900898	0.133005547372
1	3197	326.624209205443	0.133005547372
1	3206	327.2456320713	0.133005547372
1	3209	327.378637618672	0.263175744523
1	3212	327.511643166044	0.332164577186
1	3217	327.699940868834	0.133005547372
1	3222	327.930022900415	0.133005547372
1	3229	328.897110008142	0.133005547372
1	3232	329.030115555514	0.151876498924
1	3239	329.909249215004	0.133005547372
1	3242	330.042254762376	0.219159294052
1	3247	330.680376564583	0.133005547372
1	3252	331.728481914398	0.133005547372
1	3257	333.159373113413	0.133005547372
1	3262	333.707001873594	0.133005547372
1	3272	334.035623580647	0.298456500461
1	3275	334.168629128019	0.401446073024
1	3278	334.301634675391	0.493684089264
1	3283	334.613686891017	0.133005547372
1	3292	335.392519586489	0.133005547372
1	3295	335.525525133861	0.265932103969
1	3298	335.658530681233	0.348967372878
1	3303	336.528005074758	0.133005547372
1	3308	337.097096876927	0.133005547372
1	3313	339.001704609496	0.133005547372
1	3318	339.568827681869	0.133005547372
1	3323	339.99426396319	0.133005547372
1	3328	340.354193546139	0.133005547372
1	3333	340.69780149108	0.133005547372
1	3342	341.065467034069	0.133005547372
1	3345	341.198472581441	0.194512501177
1	3348	341.331478128813	0.266315036748
1	3353	341.716897409621	0.133005547372
1	3358	341.949381839375	0.133005547372
1	3363	342.562989669438	0.133005547372
1	3368	342.909710538873	0.133005547372
1	3373	344.22185417796	0.133005547372
1	3378	344.46847820532	0.133005547372
1	3383	345.323039759201	0.133005547372
1	3390	346.133630944315	0.133005547372
1	3393	346.266636491687	0.260080287616
1	3402	346.575983006828	0.133005547372
1	3405	346.7089885542	0.189170865829
1	3408	346.841994101572	0.271711756147
1	3413	347.125312528666	0.133005547372
1	3418	347.569059353322	0.133005547372
1	3423	347.742600740222	0.133005547372
1	3428	348.195229268936	0.133005547372
1	3433	348.642817285445	0.133005547372
1	3438	349.087691951685	0.133005547372
1	3445	350.585686599086	0.133005547372
1	3448	350.718692146458	0.17324646079
1	3453	351.738377479654	0.133005547372
1	3460	353.134601689209	0.133005547372
1	3463	353.267607236581	0.214562033854
1	3468	353.929016543637	0.133005547372
1	3473	354.138524812754	0.133005547372
1	3478	354.494305358465	0.133005547372
1	3483	354.641552597308	0.133005547372
1	3488	354.804532186982	0.133005547372
1	3493	355.055645148592	0.133005547372
1	3498	355.403743871573	0.133005547372
1	3505	356.363371247173	0.133005547372
1	3508	356.496376794545	0.206070228598
1	3513	356.772585947365	0.133005547372
1	3519	358.900326926772	0.133005547372
1	3524	359.063214588141	0.133005547372
1	3529	359.289289507147	0.133005547372
1	3534	360.875041594612	0.133005547372
1	3539	361.358437594533	0.133005547372
1	3546	361.716695725758	0.133005547372
1	3549	361.84970127313	0.154791395715
1	3554	362.460958601378	0.133005547372
1	3559	363.547879480812	0.133005547372
1	3564	365.309310197286	0.133005547372
1	3569	365.849721696019	0.133005547372
1	3574	366.013895915009	0.133005547372
1	3579	366.602660331483	0.133005547372
1	3586	367.854188793941	0.133005547372
1	3589	367.987194341313	0.164576383867
1	3596	368.822421092385	0.133005547372
1	3601	368.955426639757	0.217968227099
1	3606	369.088432187129	0.212468617267
1	3611	369.221437734501	0.169604555383
1	3614	369.354443281873	0.223863644467
1	3619	370.907103382285	0.133005547372
1	3626	371.103885982971	0.133005547372
1	3629	371.236891530343	0.160699738894
1	3634	371.38886320048	0.133005547372
1	3639	372.743083043693	0.133005547372
1	3646	374.041679283585	0.133005547372
1	3651	374.174684830957	0.188695628024
1	3654	374.307690378329	0.188115562717
1	3661	374.78018759927	0.133005547372
1	3664	374.913193146642	0.260565064157
1	3669	376.231703816746	0.133005547372
1	3676	376.546467783421	0.133005547372
1	3679	376.679473330793	0.225704657917
1	3684	376.856356739857	0.133005547372
1	3689	377.226579670351	0.133005547372
1	3694	377.394210772456	0.133005547372
1	3701	377.913100909703	0.133005547372
1	3704	378.046106457075	0.228516490218
1	3709	378.342045718804	0.133005547372
1	3714	378.835040725138	0.133005547372
1	3719	379.798810763586	0.133005547372
1	3726	380.114391036954	0.133005547372
1	3731	380.247396584326	0.155185238297
1	3736	380.380402131698	0.203902894955
1	3741	380.51340767907	0.243357970259
1	3744	380.646413226442	0.215004985021
1	3749	381.092151412562	0.133005547372
1	3754	381.342488723185	0.133005547372
1	3759	381.781248336705	0.133005547372
1	3764	382.3207056319	0.133005547372
1	3770	383.698843580649	0.133005547372
1	3775	383.874912619321	0.133005547372
1	3786	385.41427501683	0.133005547372
1	3789	385.547280564202	0.230394744591
1	3792	385.680286111574	0.337825633616
1	3795	385.813291658946	0.456760807086
1	3800	385.957784180534	0.133005547372
1	3805	386.411990425837	0.133005547372
1	3810	386.972432554567	0.133005547372
1	3815	387.425752748916	0.133005547372
1	3820	387.832810672274	0.133005547372
1	3825	388.901858531899	0.133005547372
1	3830	389.458783844165	0.133005547372
1	3835	389.670616071112	0.133005547372
1	3840	390.287843180656	0.133005547372
1	3845	390.659298389535	0.133005547372
1	3852	392.872318046332	0.133005547372
1	3861	393.005323593704	0.233772455124
1	3864	393.138329141076	0.259990407844
1	3867	393.271334688448	0.380382356152
1	3872	393.40434023582	0.495493086445
1	3877	393.537345783192	0.14809292744
1	3880	393.670351330564	0.169937327742
1	3885	394.168306214517	0.133005547372
1	3892	394.529294423804	0.133005547372
1	3895	394.662299971176	0.255775885691
1	3900	395.029204552191	0.133005547372
1	3905	395.307699503067	0.133005547372
1	3910	395.58902860937	0.133005547372
1	3915	397.159984142333	0.133005547372
1	3920	399.468218240179	0.133005547372
1	3925	399.727561009644	0.133005547372
1	3930	400.40099570079	0.133005547372
1	3935	403.449151222991	0.133005547372
1	3940	403.588200176102	0.133005547372
1	3945	403.777515697435	0.133005547372
1	3950	403.97577232471	0.133005547372
1	3955	405.405398864833	0.133005547372
1	3960	406.159385391701	0.133005547372
1	3965	406.306568502213	0.133005547372
1	3970	406.931197962977	0.133005547372
1	3975	407.155871843918	0.133005547372
1	3980	407.343861953287	0.133005547372
1	3985	408.924234113363	0.133005547372
1	3990	409.996234250841	0.133005547372
1	3995	410.724797706457	0.133005547372
1	4002	412.190400370257	0.133005547372
1	4005	412.323405917629	0.234398147828
1	4010	412.501610218377	0.133005547372
1	4017	412.89187951527	0.133005547372
1	4021	413.220501222323	0.435844785999
1	4026	414.22891079975	0.133005547372
1	4033	414.51981371144	0.133005547372
1	4036	414.652819258812	0.191052146811
1	4045	415.532699908877	0.133005547372
1	4048	415.665705456249	0.181969413038
1	4053	415.798711003621	0.309866063802
1	4058	415.931716550993	0.24132923899
1	4061	416.064722098365	0.259134376681
1	4066	416.222547227469	0.133005547372
1	4071	416.866055335572	0.133005547372
1	4076	417.572568358103	0.133005547372
1	4081	417.891371582176	0.133005547372
1	4086	418.547949172668	0.133005547372
1	4091	418.795851355076	0.133005547372
1	4096	418.942101283068	0.133005547372
1	4101	419.241254487108	0.133005547372
1	4106	419.607087115394	0.133005547372
1	4111	419.90412612065	0.133005547372
1	4116	420.318364146757	0.133005547372
1	4123	420.784896598397	0.133005547372
1	4126	420.917902145769	0.1651472892
1	4131	421.612193992119	0.133005547372
1	4136	422.426482805343	0.133005547372
1	4141	422.631876990803	0.133005547372
1	4146	423.508531358519	0.133005547372
1	4151	423.942926697689	0.133005547372
1	4156	424.23446628303	0.133005547372
1	4161	425.345172035052	0.133005547372
1	4166	426.282397440148	0.133005547372
1	4171	430.103681196026	0.133005547372
1	4176	430.994994027827	0.133005547372
1	4181	431.832869296197	0.133005547372
1	4190	432.743561612375	0.133005547372
1	4193	432.876567159747	0.248328230038
1	4196	433.009572707119	0.322815938052
1	4201	433.43104071344	0.133005547372
1	4206	433.966962362816	0.133005547372
1	4213	434.145937182512	0.133005547372
1	4216	434.278942729884	0.223621038279
1	4225	434.501299018248	0.133005547372
1	4228	434.63430456562	0.254137374758
1	4231	434.767310112992	0.334324738214
1	4236	434.964590824514	0.133005547372
1	4241	435.310610056763	0.133005547372
1	4246	435.53337398261	0.133005547372
1	4251	435.99859234423	0.133005547372
1	4256	436.241285269927	0.133005547372
1	4261	436.742224148687	0.133005547372
1	4266	437.027931230929	0.133005547372
1	4272	437.923612901756	0.133005547372
1	4277	438.166998054881	0.133005547372
1	4282	438.569896502498	0.133005547372
1	4289	438.884727212772	0.133005547372
1	4292	439.017732760144	0.230935020018
1	4299	440.198318817815	0.133005547372
1	4302	440.331324365187	0.200974312326
1	4309	441.186143925082	0.133005547372
1	4312	441.319149472454	0.249886467827
1	4317	443.04126818137	0.133005547372
1	4322	444.131505344303	0.133005547372
1	4327	445.510267631039	0.133005547372
1	4332	445.976400979709	0.133005547372
1	4339	447.077494775908	0.133005547372
1	4342	447.21050032328	0.220336114806
1	4347	447.829558853016	0.133005547372
1	4352	448.000311328999	0.133005547372
1	4357	448.768118092932	0.133005547372
1	4362	448.938362480378	0.133005547372
1	4367	450.286092214881	0.133005547372
1	4372	450.594209145741	0.133005547372
1	4377	450.74198102061	0.133005547372
1	4382	451.394589764107	0.133005547372
1	4387	451.681397717903	0.133005547372
1	4392	452.593819994948	0.133005547372
1	4397	454.639505090508	0.133005547372
1	4404	455.327781747104	0.133005547372
1	4407	455.460787294476	0.248291925197
1	4412	455.859391165904	0.133005547372
1	4417	456.291649849656	0.133005547372
1	4422	456.523920257541	0.133005547372
1	4427	457.5234875147	0.133005547372
1	4432	458.14894264316	0.133005547372
1	4437	459.228629115718	0.133005547372
1	4444	459.77817777006	0.133005547372
1	4447	459.911183317432	0.22507464427
1	4452	460.668659025253	0.133005547372
1	4457	460.938106294162	0.133005547372
1	4462	461.136434082206	0.133005547372
1	4467	461.945793201349	0.133005547372
1	4474	462.169303628678	0.133005547372
1	4477	462.30230917605	0.229192964328
1	4482	463.515925181752	0.133005547372
1	4487	464.198648718362	0.133005547372
1	4492	465.317608724824	0.133005547372
1	4499	465.617236047487	0.133005547372
1	4502	465.750241594859	0.167936552363
1	4509	465.951271080384	0.133005547372
1	4512	466.084276627756	0.228545110457
1	4517	466.403499697771	0.133005547372
1	4523	466.732121404824	0.201928245268
1	4528	467.648175930272	0.133005547372
1	4533	467.869811945753	0.133005547372
1	4538	469.769747642704	0.133005547372
1	4543	470.284410718317	0.133005547372
1	4548	470.438531455423	0.133005547372
1	4555	470.918301325312	0.133005547372
1	4558	471.051306872684	0.146340140459
1	4565	471.382880368029	0.133005547372
1	4568	471.515885915401	0.199844321974
1	4577	472.866307058312	0.133005547372
1	4580	472.999312605684	0.264488031104
1	4585	473.132318153056	0.278876895818
1	4588	473.265323700428	0.242400512141
1	4593	474.3689828438	0.133005547372
1	4598	475.452694098787	0.133005547372
1	4607	477.012572373878	0.133005547372
1	4610	477.14557792125	0.170771698601
1	4613	477.278583468622	0.292957043024
1	4620	478.254471909621	0.133005547372
1	4623	478.387477456993	0.141751820005
1	4628	478.577072035609	0.133005547372
1	4635	478.763542295578	0.133005547372
1	4638	478.89654784295	0.150605873779
1	4643	479.284642826827	0.133005547372
1	4648	481.272590528485	0.133005547372
1	4653	481.500732856493	0.133005547372
1	4658	481.754451291273	0.133005547372
1	4665	482.268261466065	0.133005547372
1	4668	482.401267013437	0.251640687604
1	4673	482.583624515033	0.133005547372
1	4680	483.146195146765	0.133005547372
1	4685	483.279200694137	0.190574176532
1	4688	483.412206241509	0.221681490449
1	4693	483.763171147226	0.133005547372
1	4698	484.563608918033	0.133005547372
1	4703	485.072098045813	0.133005547372
1	4710	485.283373645504	0.133005547372
1	4713	485.416379192876	0.216339822841
1	4722	485.924472724119	0.133005547372
1	4725	486.057478271491	0.23882480951
1	4728	486.190483818863	0.365455417331
1	4733	486.422141728833	0.133005547372
1	4738	486.888293092523	0.133005547372
1	4743	487.10231491785	0.133005547372
1	4748	487.32461063392	0.133005547372
1	4753	487.750253416566	0.133005547372
1	4758	488.014025918643	0.133005547372
1	4763	489.898304778661	0.133005547372
1	4768	490.888765131501	0.133005547372
1	4776	491.217386838554	0.257879991188
1	4781	491.350392385926	0.347035040078
1	4784	491.483397933298	0.259077668058
1	4791	491.779297312436	0.133005547372
1	4794	491.912302859808	0.261866118454
1	4801	493.088144642277	0.133005547372
1	4806	493.221150189649	0.203423174152
1	4809	493.354155737021	0.215728970276
1	4814	493.93003260832	0.133005547372
1	4819	494.852595391439	0.133005547372
1	4824	495.151648535543	0.133005547372
1	4829	495.539804926801	0.133005547372
1	4834	496.036190218321	0.133005547372
1	4839	496.184196610751	0.133005547372
1	4844	496.367928110806	0.133005547372
1	4849	498.9967358223	0.133005547372
1	4854	500.934861681726	0.133005547372
1	4859	502.056100767295	0.133005547372
1	4864	502.459237936288	0.133005547372
1	4871	503.746414116145	0.133005547372
1	4876	503.879419663517	0.156752910176
1	4879	504.012425210889	0.224752588251
1	4884	505.98745049322	0.133005547372
1	4891	506.291830743977	0.133005547372
1	4896	506.424836291349	0.222720873575
1	4901	506.557841838721	0.253369311718
1	4904	506.690847386093	0.197278364669
1	4909	508.55058229733	0.133005547372
1	4914	508.96195388581	0.133005547372
1	4919	509.128884112551	0.133005547372
1	4924	509.854128762873	0.133005547372
1	4929	510.291021196528	0.133005547372
1	4934	510.841179922376	0.133005547372
1	4939	511.17913189696	0.133005547372
1	4944	511.620837389501	0.133005547372
1	4951	512.047889273543	0.133005547372
1	4956	512.180894820915	0.167074421371
1	4959	512.313900368287	0.253887065991
1	4964	512.651227335727	0.133005547372
1	4971	513.040829683742	0.133005547372
1	4974	513.173835231114	0.135808652085
1	4981	513.750986971281	0.133005547372
1	4984	513.883992518653	0.176920718771
1	4991	514.950655342663	0.133005547372
1	4994	515.083660890035	0.209141365467
1	4999	515.255559360816	0.133005547372
1	5004	515.571132575226	0.133005547372
1	5011	516.309799597783	0.133005547372
1	5014	516.442805145155	0.242038343673
1	5019	516.812113571795	0.133005547372
1	5027	517.851913622166	0.133005547372
1	5030	517.984919169538	0.143077643316
1	5037	519.279118268567	0.133005547372
1	5042	519.412123815939	0.198712385011
1	5045	519.545129363311	0.212678365714
1	5050	519.755841252905	0.133005547372
1	5057	520.461966218133	0.133005547372
1	5060	520.594971765505	0.188582356888
1	5065	521.935212011774	0.133005547372
1	5072	522.642597445831	0.133005547372
1	5075	522.775602993203	0.160801708064
1	5086	523.718343391823	0.133005547372
1	5089	523.851348939195	0.260608844663
1	5092	523.984354486567	0.381694173132
1	5095	524.117360033939	0.486072661255
1	5100	524.525571056877	0.133005547372
1	5105	525.515747100367	0.133005547372
1	5110	525.659202411929	0.133005547372
1	5117	527.202708527782	0.133005547372
1	5122	527.335714075154	0.232310764698
1	5125	527.468719622526	0.203382220128
1	5132	527.657084761483	0.133005547372
1	5135	527.790090308855	0.214478790551
1	5140	527.9479306019	0.133005547372
1	5147	528.092663248097	0.133005547372
1	5150	528.225668795469	0.158596515097
1	5155	529.749897572201	0.133005547372
1	5160	529.930608822863	0.133005547372
1	5165	530.895775549651	0.133005547372
1	5172	532.007071982936	0.133005547372
1	5175	532.140077530308	0.212102553941
1	5180	532.382753719119	0.133005547372
1	5185	532.874274899136	0.133005547372
1	5190	533.109298070187	0.133005547372
1	5197	534.07847162285	0.133005547372
1	5200	534.211477170222	0.149060285309
1	5205	534.765857236056	0.133005547372
1	5212	535.826038172179	0.133005547372
1	5217	535.959043719551	0.146171167015
1	5220	536.092049266923	0.136893709728
1	5225	537.140400545898	0.133005547372
1	5230	537.304743997556	0.133005547372
1	5237	537.459328172747	0.133005547372
1	5240	537.592333720119	0.136586772364
1	5247	538.275975948093	0.133005547372
1	5252	538.408981495465	0.178657669272
1	5255	538.541987042837	0.213035181935
1	5260	539.13851425195	0.133005547372
1	5265	540.163605707711	0.133005547372
1	5272	540.467195806651	0.133005547372
1	5276	540.795817513704	0.424364970815
1	5281	541.422505429157	0.133005547372
1	5286	541.574391916554	0.133005547372
1	5291	541.802494474478	0.133005547372
1	5296	542.641043827694	0.133005547372
1	5301	542.872976967488	0.133005547372
1	5306	543.721809355018	0.133005547372
1	5311	543.882302184661	0.133005547372
1	5316	544.671988690883	0.133005547372
1	5321	544.825714692914	0.133005547372
1	5328	545.117355400251	0.133005547372
1	5331	545.250360947623	0.214669855114
1	5336	547.43246466754	0.133005547372
1	5343	547.589984607671	0.133005547372
1	5348	547.722990155043	0.192911018052
1	5351	547.855995702415	0.154981749168
1	5356	548.307508883899	0.133005547372
1	5363	548.870972610158	0.133005547372
1	5366	549.00397815753	0.153119678299
1	5371	549.20182133868	0.133005547372
1	5376	549.762581012248	0.133005547372
1	5381	550.288387200257	0.133005547372
1	5386	551.160351184607	0.133005547372
1	5391	551.588805710428	0.133005547372
1	5396	553.268393167165	0.133005547372
1	5401	555.501581415241	0.133005547372
1	5406	555.822283218635	0.133005547372
1	5411	556.825670254316	0.133005547372
1	5416	557.644545524095	0.133005547372
1	5423	557.926295191881	0.133005547372
1	5426	558.059300739253	0.22785275017
1	5431	559.238057938351	0.133005547372
1	5440	559.918616126881	0.133005547372
1	5443	560.051621674253	0.19049440672
1	5448	560.184627221625	0.313567155651
1	5451	560.317632768997	0.145659506839
1	5456	560.901509492631	0.133005547372
1	5463	561.788960823707	0.133005547372
1	5466	561.921966371079	0.138505696988
1	5471	563.337994990395	0.133005547372
1	5476	563.514105901946	0.133005547372
1	5483	564.298446940526	0.133005547372
1	5488	564.431452487898	0.150799656186
1	5491	564.56445803527	0.166969305792
1	5496	564.698457859807	0.133005547372
1	5501	565.218088446907	0.133005547372
1	5508	565.393573429825	0.133005547372
1	5511	565.526578977197	0.242551630208
1	5516	566.649508131022	0.133005547372
1	5521	567.328446601805	0.133005547372
1	5529	567.657068308858	0.279701137915
1	5534	567.79007385623	0.158239499885
1	5537	567.923079403602	0.217421913264
1	5544	568.551710745709	0.133005547372
1	5551	568.684716293081	0.136148491326
1	5554	568.817721840453	0.183192352414
1	5557	568.950727387825	0.27014983347
1	5562	569.697399842119	0.133005547372
1	5569	569.84345875826	0.133005547372
1	5572	569.976464305632	0.195741716333
1	5577	570.801186452717	0.133005547372
1	5582	571.187987631967	0.133005547372
1	5587	571.453200322848	0.133005547372
1	5594	572.455985035603	0.133005547372
1	5597	572.588990582975	0.172758919101
1	5602	573.302064720068	0.133005547372
1	5607	573.681762411225	0.133005547372
1	5612	573.948351900998	0.133005547372
1	5617	574.922845331895	0.133005547372
1	5622	575.174051260574	0.133005547372
1	5627	575.469098371446	0.133005547372
1	5632	575.609144546755	0.133005547372
1	5637	576.148765458654	0.133005547372
1	5642	577.015414936132	0.133005547372
1	5647	577.733620074929	0.133005547372
1	5652	578.5277517672	0.133005547372
1	5657	579.179297005339	0.133005547372
1	5662	579.325850150397	0.133005547372
1	5667	579.73414080336	0.133005547372
1	5672	580.054901580781	0.133005547372
1	5677	580.306493943686	0.133005547372
1	5682	580.87819049113	0.133005547372
1	5687	581.137292872984	0.133005547372
1	5692	581.488005901858	0.133005547372
1	5697	581.639432463337	0.133005547372
1	5702	582.64318282391	0.133005547372
1	5707	582.899200879602	0.133005547372
1	5712	583.244160786123	0.133005547372
1	5717	584.998052438641	0.133005547372
1	5722	585.249340162053	0.133005547372
1	5727	586.225758840141	0.133005547372
1	5732	587.524973124678	0.133005547372
1	5737	587.718019190696	0.133005547372
1	5742	587.932442261464	0.133005547372
1	5747	588.293679300757	0.133005547372
1	5752	589.055973350341	0.133005547372
1	5757	589.65526143872	0.133005547372
1	5764	590.539963284942	0.133005547372
1	5767	590.672968832314	0.18686898357
1	5772	591.173086269289	0.133005547372
1	5782	593.828300130208	0.133005547372
1	5785	593.96130567758	0.243870339054
1	5788	594.094311224952	0.316533459747
1	5793	594.365413639881	0.133005547372
1	5798	594.912277976022	0.133005547372
1	5803	595.460943205466	0.133005547372
1	5808	595.789674987032	0.133005547372
1	5813	595.935458655075	0.133005547372
1	5818	596.423441025355	0.133005547372
1	5823	597.294520043802	0.133005547372
1	5830	598.189037907994	0.133005547372
1	5833	598.322043455366	0.146934716043
1	5838	598.638825391022	0.133005547372
1	5843	603.059100350689	0.133005547372
1	5848	603.71326973256	0.133005547372
1	5853	603.855909074545	0.133005547372
1	5858	604.091692354657	0.133005547372
1	5863	604.335410074001	0.133005547372
1	5868	605.540734256112	0.133005547372
1	5873	605.688342554045	0.133005547372
1	5878	606.333822898069	0.133005547372
1	5883	607.124837068284	0.133005547372
1	5888	607.569226574147	0.133005547372
1	5893	607.735587958623	0.133005547372
1	5898	607.93158881476	0.133005547372
1	5903	608.563650518661	0.133005547372
1	5908	608.753696267554	0.133005547372
1	5913	609.301329044552	0.133005547372
1	5920	610.343907805725	0.133005547372
1	5923	610.476913353097	0.15750625927
1	5930	611.385490706774	0.133005547372
1	5933	611.518496254146	0.233460024479
1	5938	612.236274355383	0.133005547372
1	5943	612.375723641472	0.133005547372
1	5950	612.606686519099	0.133005547372
1	5957	612.739692066471	0.257282132945
1	5960	612.872697613843	0.152009536609
1	5963	613.005703161215	0.274381178369
1	5968	613.201641773581	0.133005547372
1	5975	614.218252208444	0.133005547372
1	5980	614.351257755816	0.199854405456
1	5983	614.484263303188	0.193306749936
1	5988	614.706643784308	0.133005547372
1	5993	614.860782094982	0.133005547372
1	5998	615.251510158922	0.133005547372
1	6005	616.632392217997	0.133005547372
1	6008	616.765397765369	0.151479239849
1	6013	616.973509038054	0.133005547372
1	6018	617.112426332755	0.133005547372
1	6025	617.699540590832	0.133005547372
1	6031	618.028162297885	0.421705049263
1	6034	618.161167845257	0.175732964252
1	6039	618.973174273686	0.133005547372
1	6044	619.199742769617	0.133005547372
1	6051	620.443966450539	0.133005547372
1	6056	620.576971997911	0.207983919265
1	6059	620.709977545283	0.217916269244
1	6068	621.375068387367	0.133005547372
1	6073	621.508073934739	0.141476381842
1	6076	621.641079482111	0.268602688781
1	6079	621.774085029483	0.364179574254
1	6084	622.172757519437	0.133005547372
1	6089	622.491536118223	0.133005547372
1	6094	623.654152409973	0.133005547372
1	6101	623.792114773798	0.133005547372
1	6106	623.92512032117	0.155197124458
1	6109	624.058125868542	0.137490287135
1	6114	625.347566911494	0.133005547372
1	6119	625.827876816709	0.133005547372
1	6124	626.290433870332	0.133005547372
1	6129	627.394240650523	0.133005547372
1	6138	627.607897805902	0.133005547372
1	6141	627.740903353274	0.243667249651
1	6144	627.873908900646	0.353980302347
1	6151	628.31879634797	0.133005547372
1	6154	628.451801895342	0.207807400268
1	6163	630.302452878176	0.133005547372
1	6166	630.435458425548	0.144269623766
1	6171	630.56846397292	0.266154812869
1	6174	630.701469520292	0.155100338828
1	6179	631.281840136932	0.133005547372
1	6184	632.839071471248	0.133005547372
1	6189	634.742479425279	0.133005547372
1	6196	635.039640481212	0.133005547372
1	6199	635.172646028584	0.1560436469
1	6204	636.114601768237	0.133005547372
1	6209	636.457978654224	0.133005547372
1	6214	636.736633193409	0.133005547372
1	6219	637.033416190139	0.133005547372
1	6224	637.625001393781	0.133005547372
1	6231	638.999143774608	0.133005547372
1	6236	639.13214932198	0.20488104914
1	6239	639.265154869352	0.233524975071
1	6244	639.979204336875	0.133005547372
1	6251	640.306486418697	0.133005547372
1	6254	640.439491966069	0.256441889326
1	6259	640.61176854817	0.133005547372
1	6268	640.765560969393	0.133005547372
1	6271	640.898566516765	0.250547602676
1	6274	641.031572064137	0.318266988652
1	6282	641.36019377119	0.249164889614
1	6285	641.493199318562	0.217803334553
1	6292	642.105474180151	0.133005547372
1	6295	642.238479727523	0.183731644464
1	6300	643.180167136696	0.133005547372
1	6307	644.062516874306	0.133005547372
1	6310	644.195522421678	0.135171817976
1	6315	644.901371225473	0.133005547372
1	6320	645.289609593005	0.133005547372
1	6325	646.42168601736	0.133005547372
1	6330	646.590965947973	0.133005547372
1	6337	646.866304995949	0.133005547372
1	6340	646.999310543321	0.186647656772
1	6345	647.345556040344	0.133005547372
1	6350	647.820151025079	0.133005547372
1	6355	650.246982303719	0.133005547372
1	6360	650.964051489147	0.133005547372
1	6365	651.151169617804	0.133005547372
1	6372	651.346967395891	0.133005547372
1	6377	651.479972943263	0.219093208597
1	6380	651.612978490635	0.201888671564
1	6385	652.209537387235	0.133005547372
1	6390	653.221474082494	0.133005547372
[...]
8	1070	113.965785994994	0.129658558562
8	1080	114.534876897242	0.007285974702
8	1085	114.667882444614	0.007156920349
8	1110	117.397575195861	0.013580364013
8	1120	117.833346809324	0.036873413611
8	1135	119.331919498554	0.068392937603
8	1160	122.071793718231	0.041054941329
8	1165	122.204799265603	0.052597971061
8	1187	125.401846151009	0.114641448966
8	1190	125.534851698381	0.218727974444
8	1257	134.242291961082	0.051191823728
8	1276	137.361241190086	0.013183055605
8	1281	137.494246737458	0.014376298007
8	1286	137.62725228483	0.039489190205
8	1321	142.062344021272	0.028486108187
8	1336	143.539964014379	0.070694878371
8	1371	146.945456623324	0.088187575962
8	1386	149.640729668596	0.041789039997
8	1396	150.428787717351	0.022211262067
8	1411	152.498071293398	0.015311754756
8	1416	152.63107684077	0.092449652286
8	1441	155.21293457812	0.079317247991
8	1491	162.529694709929	0.101897303375
8	1501	164.502238096226	0.108345012855
8	1508	164.830859803279	0.074843003187
8	1514	164.963865350651	0.088178911951
8	1517	165.096870898023	0.176867654908
8	1532	166.788514489968	0.034172075038
8	1537	166.92152003734	0.106553340002
8	1552	168.409283043718	0.038086988836
8	1557	168.54228859109	0.025848132811
8	1612	174.029093477172	0.075813214719
8	1627	174.961854941918	0.114325701483
8	1637	175.958708225299	0.109120525692
8	1642	176.091713772671	0.124360728027
8	1667	179.589122105138	0.023876735898
8	1679	179.897522403051	0.092743098309
8	1682	180.030527950423	0.1470561615
8	1687	180.163533497795	0.076319182434
8	1702	181.202158722546	0.027218797929
8	1719	183.413437533744	0.122284145018
8	1724	183.546443081116	0.174505002885
8	1727	183.679448628488	0.252052440519
8	1752	186.583716454166	0.066728091826
8	1805	192.378867623232	0.077292969123
8	1808	192.511873170604	0.172090965287
8	1825	193.625475260955	0.124978540157
8	1828	193.758480808327	0.167817399224
8	1863	198.541755954828	0.044066492381
8	1890	202.890368866657	0.071337306204
8	1893	203.023374414029	0.15108887956
8	1898	203.156379961401	0.103347476125
8	1968	210.781297194694	0.017825551633
8	1973	210.914302742066	0.082939775876
8	1978	211.047308289438	0.004795580765
8	1983	211.18031383681	0.101932584186
8	2010	212.906468198259	0.118374455158
8	2014	213.039473745631	0.039335817822
8	2054	218.086234659282	0.078872221207
8	2109	222.731789727346	0.098907034655
8	2124	223.693383720583	0.008966629833
8	2164	234.677959904968	0.062644030128
8	2211	239.67382126423	0.071581267007
8	2216	239.806826811602	0.201770176398
8	2219	239.939832358974	0.20524365831
8	2261	243.994409368192	0.059935575109
8	2270	244.469172556351	0.000917864251
8	2287	245.615619594958	0.128986016037
8	2294	245.74862514233	0.165438671873
8	2297	245.881630689702	0.208705910685
8	2302	246.014636237074	0.324564555219
8	2305	246.147641784446	0.259048459616
8	2310	246.280647331818	0.044915598516
8	2360	251.490652745538	0.005059211824
8	2385	252.731657069871	0.03201940879
8	2405	255.561749747246	0.031764142554
8	2440	257.756216306752	0.076725901454
8	2445	257.889221854124	0.051136994201
8	2457	258.161304871555	0.03723073856
8	2462	258.294310418927	0.164312754941
8	2465	258.427315966299	0.245144883289
8	2477	259.219697561369	0.101711641688
8	2484	259.352703108741	0.22898844506
8	2487	259.485708656113	0.220068766812
8	2492	259.618714203485	0.312402633637
8	2501	259.751719750857	0.147358966973
8	2504	259.884725298229	0.170697106305
8	2507	260.017730845601	0.288424037028
8	2512	260.346352552654	0.613721322843
8	2541	263.196057648117	0.110259305621
8	2551	264.005813825667	0.118291493381
8	2561	264.759088486611	0.094633829833
8	2566	264.892094033983	0.042712522226
8	2571	265.025099581355	0.047843256933
8	2581	265.455606340236	0.097200385758
8	2586	265.588611887608	0.067495143644
8	2601	267.672662632208	0.124998900833
8	2611	268.264287111901	0.014865893937
8	2616	268.397292659273	0.004002311414
8	2621	268.530298206645	0.108986926282
8	2656	272.184898831345	0.131527813378
8	2666	272.751439765841	0.000868787036
8	2696	275.696269295525	0.01439554196
8	2741	281.155892603946	0.130295101445
8	2782	286.043803096687	0.029762359754
8	2792	286.363057330295	0.017501428777
8	2817	290.129057527621	0.049660565646
8	2842	293.364570004206	0.105987502226
8	2847	293.497575551578	0.036638803759
8	2852	293.63058109895	0.052166843742
8	2867	294.882214099144	0.012988041372
8	2894	297.711140325255	0.04591399152
8	2897	297.844145872627	0.147266050211
8	2917	298.913707116591	0.001556891435
8	2922	299.046712663963	0.129060234919
8	2947	301.452283953938	0.119230865609
8	2977	303.997121797403	0.090110756688
8	3038	310.268714308262	0.03524829548
8	3048	311.521550865563	0.077788669183
8	3058	312.216857486144	0.072711737517
8	3068	312.836427191209	0.040560815507
8	3088	314.24196642564	0.064215973426
8	3093	314.374971973012	0.126535753828
8	3103	314.832893139213	0.12695991947
8	3118	315.846618238023	0.033894607671
8	3130	316.302554525327	0.087107052952
8	3133	316.435560072699	0.151383924261
8	3138	316.568565620071	0.042119657062
8	3143	316.701571167443	0.045492471838
8	3205	327.2456320713	0.130170197151
8	3208	327.378637618672	0.199159029814
8	3228	328.897110008142	0.018870951552
8	3238	329.909249215004	0.08615374668
8	3269	333.902618033275	0.165450953089
8	3271	334.035623580647	0.268440525652
8	3274	334.168629128019	0.360678541892
8	3291	335.392519586489	0.132926556597
8	3294	335.525525133861	0.215961825506
8	3341	341.065467034069	0.061506953805
8	3344	341.198472581441	0.133309489376
8	3389	346.133630944315	0.127074740244
8	3401	346.575983006828	0.056165318457
8	3404	346.7089885542	0.138706208775
8	3444	350.585686599086	0.040240913418
8	3459	353.134601689209	0.081556486482
8	3504	356.363371247173	0.073064681226
8	3545	361.716695725758	0.021785848343
8	3585	367.854188793941	0.031570836495
8	3595	368.822421092385	0.084962679727
8	3600	368.955426639757	0.079463069895
8	3605	369.088432187129	0.036599008011
8	3610	369.221437734501	0.090858097095
8	3625	371.103885982971	0.027694191522
8	3645	374.041679283585	0.055690080652
8	3650	374.174684830957	0.055110015345
8	3660	374.78018759927	0.127559516785
8	3675	376.546467783421	0.092699110545
8	3700	377.913100909703	0.095510942846
8	3725	380.114391036954	0.022179690925
8	3730	380.247396584326	0.070897347583
8	3735	380.380402131698	0.110352422887
8	3740	380.51340767907	0.081999437649
8	3785	385.41427501683	0.097389197219
8	3788	385.547280564202	0.204820086244
8	3791	385.680286111574	0.323755259714
8	3851	392.872318046332	0.100766907752
8	3860	393.005323593704	0.126984860472
8	3863	393.138329141076	0.24737680878
8	3866	393.271334688448	0.362487539073
8	3871	393.40434023582	0.015087380068
8	3876	393.537345783192	0.03693178037
8	3891	394.529294423804	0.122770338319
8	4001	412.190400370257	0.101392600456
8	4018	413.087495674951	0.302839238627
8	4032	414.51981371144	0.058046599439
8	4044	415.532699908877	0.048963865666
8	4047	415.665705456249	0.17686051643
8	4052	415.798711003621	0.108323691618
8	4057	415.931716550993	0.126128829309
8	4122	420.784896598397	0.032141741828
8	4189	432.743561612375	0.115322682666
8	4192	432.876567159747	0.18981039068
8	4212	434.145937182512	0.090615490907
8	4224	434.501299018248	0.121131827386
8	4227	434.63430456562	0.201319190842
8	4288	438.884727212772	0.097929472646
8	4298	440.198318817815	0.067968764954
8	4308	441.186143925082	0.116880920455
8	4338	447.077494775908	0.087330567434
8	4403	455.327781747104	0.115286377825
8	4443	459.77817777006	0.092069096898
8	4473	462.169303628678	0.096187416956
8	4498	465.617236047487	0.034931004991
8	4508	465.951271080384	0.095539563085
8	4520	466.599115857452	0.068922697896
8	4554	470.918301325312	0.013334593087
8	4564	471.382880368029	0.066838774602
8	4576	472.866307058312	0.131482483732
8	4579	472.999312605684	0.145871348446
8	4584	473.132318153056	0.109394964769
8	4606	477.012572373878	0.037766151229
8	4609	477.14557792125	0.159951495652
8	4619	478.254471909621	0.008746272633
8	4634	478.763542295578	0.017600326407
8	4664	482.268261466065	0.118635140232
8	4679	483.146195146765	0.05756862916
8	4684	483.279200694137	0.088675943077
8	4709	485.283373645504	0.083334275469
8	4721	485.924472724119	0.105819262138
8	4724	486.057478271491	0.232449869959
8	4773	491.084381291182	0.124874443816
8	4775	491.217386838554	0.214029492706
8	4780	491.350392385926	0.126072120686
8	4790	491.779297312436	0.128860571082
8	4800	493.088144642277	0.07041762678
8	4805	493.221150189649	0.082723422904
8	4870	503.746414116145	0.023747362804
8	4875	503.879419663517	0.091747040879
8	4890	506.291830743977	0.089715326203
8	4895	506.424836291349	0.120363764346
8	4900	506.557841838721	0.064272817297
8	4950	512.047889273543	0.034068873999
8	4955	512.180894820915	0.120881518619
8	4970	513.040829683742	0.002803104713
8	4980	513.750986971281	0.043915171399
8	4990	514.950655342663	0.076135818095
8	5010	516.309799597783	0.109032796301
8	5026	517.851913622166	0.010072095944
8	5036	519.279118268567	0.065706837639
8	5041	519.412123815939	0.079672818342
8	5056	520.461966218133	0.055576809516
8	5071	522.642597445831	0.027796160692
8	5085	523.718343391823	0.127603297291
8	5088	523.851348939195	0.24868862576
8	5091	523.984354486567	0.353067113883
8	5116	527.202708527782	0.099305217326
8	5121	527.335714075154	0.070376672756
8	5131	527.657084761483	0.081473243179
8	5146	528.092663248097	0.025590967725
8	5171	532.007071982936	0.079097006569
8	5196	534.07847162285	0.016054737937
8	5211	535.826038172179	0.013165619643
8	5216	535.959043719551	0.003888162356
8	5236	537.459328172747	0.003581224992
8	5246	538.275975948093	0.0456521219
8	5251	538.408981495465	0.080029634563
8	5273	540.662811966332	0.291359423443
8	5327	545.117355400251	0.081664307742
8	5342	547.589984607671	0.05990547068
8	5347	547.722990155043	0.021976201796
8	5362	548.870972610158	0.020114130927
8	5422	557.926295191881	0.094847202798
8	5439	559.918616126881	0.057488859348
8	5442	560.051621674253	0.180561608279
8	5447	560.184627221625	0.012653959467
8	5462	561.788960823707	0.005500149616
8	5482	564.298446940526	0.017794108814
8	5487	564.431452487898	0.03396375842
8	5507	565.393573429825	0.109546082836
8	5524	567.524062761486	0.146695590543
8	5528	567.657068308858	0.025233952513
8	5533	567.79007385623	0.084416365892
8	5543	568.551710745709	0.003142943954
8	5550	568.684716293081	0.050186805042
8	5553	568.817721840453	0.137144286098
8	5568	569.84345875826	0.062736168961
8	5593	572.455985035603	0.039753371729
8	5763	590.539963284942	0.053863436198
8	5781	593.828300130208	0.110864791682
8	5784	593.96130567758	0.183527912375
8	5829	598.189037907994	0.013929168671
8	5919	610.343907805725	0.024500711898
8	5929	611.385490706774	0.100454477107
8	5949	612.606686519099	0.124276585573
8	5956	612.739692066471	0.019003989237
8	5959	612.872697613843	0.141375630997
8	5974	614.218252208444	0.066848858084
8	5979	614.351257755816	0.060301202564
8	6004	616.632392217997	0.018473692477
8	6026	617.895156750513	0.288699501891
8	6030	618.028162297885	0.04272741688
8	6050	620.443966450539	0.074978371893
8	6055	620.576971997911	0.084910721872
8	6067	621.375068387367	0.00847083447
8	6072	621.508073934739	0.135597141409
8	6075	621.641079482111	0.231174026882
8	6100	623.792114773798	0.022191577086
8	6105	623.92512032117	0.004484739763
8	6137	627.607897805902	0.110661702279
8	6140	627.740903353274	0.220974754975
8	6150	628.31879634797	0.074801852896
8	6162	630.302452878176	0.011264076394
8	6165	630.435458425548	0.133149265497
8	6170	630.56846397292	0.022094791456
8	6195	635.039640481212	0.023038099528
8	6230	638.999143774608	0.071875501768
8	6235	639.13214932198	0.100519427699
8	6250	640.306486418697	0.123436341954
8	6267	640.765560969393	0.117542055304
8	6270	640.898566516765	0.18526144128
8	6277	641.227188223818	0.116159342242
8	6281	641.36019377119	0.084797787181
8	6291	642.105474180151	0.050726097092
8	6306	644.062516874306	0.002166270604
8	6336	646.866304995949	0.0536421094
8	6371	651.346967395891	0.086087661225
8	6376	651.479972943263	0.068883124192
8	6396	653.638909068287	0.129124110613
8	6401	653.771914615659	0.111567858056
8	6453	658.029519814541	0.118550983583
8	6456	658.162525361913	0.176914886533
8	6471	659.99102657598	0.11633658436
8	6483	660.806257037758	0.110046183985
8	6486	660.93926258513	0.190275862909
8	6505	661.734408689586	0.110248589384
8	6508	661.867414236958	0.169037109302
8	6511	662.00041978433	0.268198708226
8	6516	662.133425331702	0.045432894445
8	6532	663.991637070217	0.101959107323
8	6562	666.087045375279	0.04836027274
8	6572	667.155055687591	0.075495444867
8	6587	668.834509873122	0.060657951446
8	6597	669.229206228132	0.006046740571
8	6607	669.785631585781	0.037690119599
8	6612	669.918637133153	0.028606667667
8	6622	670.331811201574	0.105124695701
8	6627	670.464816748946	0.060306680259
8	6662	673.525377972122	0.11202522437
8	6677	674.423628446829	0.132976704644
8	6682	674.556633994201	0.082068870205
8	6692	675.112911593354	0.022453668917
8	6697	675.245917140726	0.039960259505
8	6742	678.428898301111	0.039485135116
8	6813	684.615649635633	0.058776346259
8	6843	687.019335190713	0.130776871981
8	6848	687.152340738085	0.021957012396
8	6853	687.285346285457	0.084516702803
8	6858	687.418351832829	0.001326166621
8	6908	692.612598846713	0.059576966619
8	6938	696.487575093927	0.126126966793
8	6948	697.11803979168	0.010786122502
8	6953	697.251045339052	0.01987500866
8	6973	698.95734077046	0.053804486776
8	6983	699.635914931053	0.036815886864
8	6997	700.228751234441	0.119118297677
8	7000	700.361756781813	0.192468785379
8	7007	700.494762329185	0.292049476852
8	7014	700.627767876557	0.221972009901
8	7017	700.760773423929	0.307543318629
8	7020	700.893778971301	0.397607753618
8	7023	701.026784518673	0.488742187381
8	7034	701.687920320486	0.014551954151
8	7074	705.85962618607	0.040045831502
8	7079	705.992631733442	0.121122445016
8	7089	706.540065559209	0.098281064514
8	7099	707.233630112236	0.070784150604
8	7134	713.135834565792	0.104321601698
8	7179	718.85452842147	0.117579074517
8	7189	719.590212666938	0.095458146489
8	7204	720.004398661611	0.067336799002
8	7209	720.137404208983	0.076491271028
8	7219	721.526295423994	0.112008555793
8	7269	728.811407892029	0.069547112099
8	7274	728.944413439401	0.067259966308
8	7281	729.273035146454	0.201615999559
8	7295	730.287321365018	0.03192802115
8	7300	730.42032691239	0.064930190119
8	7305	730.553332459762	0.019085900708
8	7330	732.380608955918	0.054138257132
8	7337	732.51361450329	0.129510049292
8	7342	732.646620050662	0.176581918193
8	7345	732.779625598034	0.250081467084
8	7350	732.912631145406	0.003480153969
8	7357	733.045636692778	0.051117868591
8	7360	733.17864224015	0.14973778544
8	7380	734.286837455217	0.017500995226
8	7390	735.551964867125	0.093493481414
8	7402	735.931081860911	0.038454765857
8	7409	736.064087408283	0.153105091016
8	7414	736.197092955655	0.202355586726
8	7417	736.330098503027	0.296991966778
8	7420	736.463104050399	0.288545185327
8	7427	736.596109597771	0.082963463749
8	7430	736.729115145143	0.170505821033
8	7465	740.904234455378	0.017396979162
8	7485	742.040937192363	0.023955883877
8	7505	744.687397024588	0.055467120672
8	7510	744.82040257196	0.104649676498
8	7515	744.953408119332	0.05462712121
8	7525	745.303470067205	0.112406211509
8	7532	745.632091774258	0.130890682629
8	7566	749.659418234686	0.068138321778
8	7596	751.888881978571	0.079372003477
8	7616	753.78276905481	0.04752158345
8	7621	753.915774602182	0.005920830782
8	7641	755.221321436291	0.004053826816
8	7646	755.354326983663	0.102918040874
8	7691	759.52987937123	0.023675448738
8	7696	759.662884918602	0.038998913323
8	7703	759.795890465974	0.113398039121
8	7706	759.928896013346	0.15294506405
8	7711	760.061901560718	0.110979401162
8	7756	767.240411257209	0.062341378206
8	7822	775.033180979234	0.016210599534
8	7832	777.046506608834	0.092872923828
8	7862	782.048842281118	0.013081551122
8	7904	789.191551687089	0.127122119053
8	7907	789.324557234461	0.211115448388
8	7932	791.200185392045	0.080272141261
8	7957	792.983215444199	0.027312042058
8	7962	793.116220991571	0.003034371429
8	7972	793.763919302484	0.085916694101
8	7984	794.319663520409	0.131884878882
8	7987	794.452669067781	0.215327311027
8	8058	802.357536576754	0.089596947618
8	8068	802.943347601868	0.048752236109
8	8073	803.07635314924	0.049306065905
8	8078	803.209358696612	0.047376067243
8	8083	803.342364243984	0.088613697122
8	8098	803.884276421018	0.070188118138
8	8113	806.490099169722	0.107092096972
8	8128	807.354449773394	0.128261854769
8	8223	816.953681153377	0.100497997716
8	8228	817.086686700749	0.018286258369
8	8247	818.343657836638	0.094799696717
8	8250	818.47666338401	0.218454287597
8	8253	818.609668931382	0.304120897676
8	8273	819.718953331706	0.04525710996
8	8285	820.849383512016	0.019545343998
8	8319	826.860316280901	0.061545405829
8	8334	827.627751094393	0.080103917504
8	8346	828.002989644784	0.061134621665
8	8349	828.135995192156	0.17121615354
8	8369	829.277919927345	0.025851495756
8	8399	831.865639770514	0.038107850278
8	8434	835.837320023324	0.042230581953
8	8469	838.40470412019	0.112243934489
8	8494	842.045469992071	0.060793787015
8	8575	851.509637304747	0.069260946699
8	8605	853.685443555709	0.115777165037
8	8615	854.440968761937	0.000506641192
8	8660	858.982726501401	0.091904164565
8	8670	860.361658665544	0.061663632436
8	8700	863.677951387666	0.011985251051
8	8725	866.540496117214	0.035198222481
8	8765	870.5833387513	0.054444912484
8	8770	870.716344298672	0.039130612039
8	8787	871.813289440434	0.047945457006
8	8801	872.511346076958	0.046600579817
8	8806	872.64435162433	0.02671549169
8	8816	873.11455002948	0.01984672529
8	8821	873.247555576852	0.130729817391
8	8831	873.531658533828	0.033149738985
8	8856	878.534829479946	0.009706783664
8	8871	881.008641907471	0.041233439552
8	8911	884.835968320049	0.097721429439
8	8936	887.228022462345	0.117919104483
8	8966	889.368628313711	0.097774971436
8	8976	891.425501805848	0.123170523662
8	8983	891.55850735322	0.107336522492
8	8988	891.691512900592	0.192113356819
8	8991	891.824518447964	0.138860286451
8	9026	897.044119457456	0.105912703984
8	9077	901.773588811438	0.073231331937
8	9089	902.624410480795	0.10851740394
8	9092	902.757416028167	0.211630597632
8	9107	903.522670377126	0.103035329771
8	9117	904.644883602721	0.012468727336
8	9147	908.777170306316	0.090906059463
8	9202	914.036114748626	0.096441392999
8	9207	914.169120295998	0.039186029808
8	9212	914.30212584337	0.107227814938
8	9217	914.435131390742	0.008368915591
8	9242	916.492093979889	0.061986479445
8	9261	918.534169335671	0.084675816154
8	9264	918.667174883043	0.185855880098
8	9267	918.800180430415	0.293136685206
8	9272	918.933185977787	0.121795422691
8	9289	922.154313850198	0.082490757079
8	9313	925.158103980073	0.045995670656
8	9323	925.689912944702	0.083833389701
8	9328	925.822918492074	0.066447156568
8	9333	925.955924039446	0.077747749751
8	9368	930.594171609106	0.09269632644
8	9378	932.80033380922	0.018177860989
8	9388	933.214600150351	0.010702108903
8	9398	933.659119204811	0.077763280657
8	9413	934.491938335135	0.132542125193
8	9448	937.933088903759	0.10911557588
8	9537	949.086371795692	0.095617573154
8	9542	949.414993502745	0.34972932071
8	9544	949.547999050117	0.466411330688
8	9569	952.728661812783	0.047952219883
8	9589	954.424858528465	0.073212047857
8	9594	954.557864075837	0.065628488283
8	9604	954.94349340326	0.026598054201
8	9646	960.233778694282	0.101749748932
8	9649	960.366784241654	0.133900025871
8	9669	961.410489332638	0.04795441591
8	9684	962.063769161595	0.097250158834
8	9709	965.109944525693	0.072046698393
8	9719	965.486796534782	0.005529090955
8	9731	965.766047056186	0.11735299666
8	9734	965.899052603558	0.182621552208
8	9779	973.496552035839	0.118089907996
8	9825	979.83586580061	0.043744561857
8	9850	982.493772966792	0.081344674819
8	9865	983.163377924347	0.004493027931
8	9885	985.041562943592	0.098387025913
8	9892	985.174568490964	0.007436984611
8	9895	985.307574038336	0.134406648767
8	9955	991.943888318183	0.033975505863
8	10000	995.201296791487	0.125773523867
8	10010	995.910447466132	0.057471485547
8	10025	999.159499069583	0.12100566662

