version 2
run General-177-20240201-11:04:21-40057
attr configname General
attr datetime 20240201-11:04:21
attr experiment General
attr inifile main.ini
attr iterationvars "$0=1.4, $1=1.7, $2=70"
attr iterationvarsf 1.4,1.7,70-
attr measurement "$0=1.4, $1=1.7, $2=70"
attr network Rete
attr processid 40057
attr repetition 17
attr replication #17
attr resultdir results
attr runnumber 177
attr seedset 177
param Rete.lambda 1.4
param Rete.a 0.3s
param Rete.b 1.7s
param Rete.c 0.1s
param Rete.d 0.3s
param Rete.mu 3.0
param Rete.source2.interArrivalTime exponential(1s/lambda)
param Rete.source2.jobServiceTime exponential(1s/mu)
param Rete.source2.deadline uniform(a,b)
param Rete.server2.j 70
param Rete.server2.V uniform(c,d)

vector 0 Rete.passiveQueue queueLength:vector ETV
attr interpolationmode sample-hold
attr title "queue length, vector"
vector 1 Rete.passiveQueue queueingTime:vector ETV
attr interpolationmode none
attr title "queueing time at dequeue, vector"
attr unit s
vector 2 Rete.sink lifeTime:vector ETV
attr interpolationmode none
attr title "lifetime of arrived jobs, vector"
attr unit s
vector 3 Rete.sink totalQueueingTime:vector ETV
attr interpolationmode none
attr title "the total time spent in queues by arrived jobs, vector"
attr unit s
vector 4 Rete.sink queuesVisited:vector ETV
attr interpolationmode none
attr title "the total number of queues visited by arrived jobs, vector"
vector 5 Rete.sink totalServiceTime:vector ETV
attr interpolationmode none
attr title "the total time spent  by arrived jobs, vector"
attr unit s
vector 6 Rete.sink totalDelayTime:vector ETV
attr interpolationmode none
attr title "the total time spent in delay nodes by arrived jobs, vector"
attr unit s
vector 7 Rete.sink delaysVisited:vector ETV
attr interpolationmode none
attr title "the total number of delays visited by arrived jobs, vector"
vector 8 Rete.sink generation:vector ETV
attr interpolationmode none
attr title "the generation of the arrived jobs, vector"
0	0	0	0
0	5	0.919168443097	1
0	6	1.012782831387	0
0	10	1.485774376704	1
0	11	1.526404593215	0
0	15	1.633384081153	1
0	16	2.040026355043	0
0	20	2.395272481048	1
0	21	2.553648116871	0
0	25	2.631553481982	1
0	26	3.067269878699	0
0	30	3.266825116126	1
0	31	3.580891640527	0
0	35	3.971684490071	1
0	36	4.094513402355	0
0	40	4.550662007831	1
0	41	4.608135164183	0
0	45	5.120374388709	1
0	46	5.121756926011	0
0	50	5.14907970918	1
0	52	5.374207162694	2
0	53	5.635378687839	1
0	56	6.149000449667	0
0	70	8.189640517218	1
0	72	8.56030654301	2
0	73	8.668064035055	1
0	77	9.064414825609	2
0	78	9.181685796883	1
0	81	9.695307558711	0
0	85	10.047113770327	1
0	86	10.208929320539	0
0	110	13.600143989421	1
0	111	13.887070940605	0
0	125	15.133918062111	1
0	127	15.136481642532	2
0	129	15.544821090543	3
0	130	15.547415698653	2
0	133	16.061037460481	1
0	135	16.061037460481	0
0	138	16.272483007244	1
0	139	16.574659222309	0
0	143	16.872570513028	1
0	144	17.088280984137	0
0	148	17.346245646985	1
0	149	17.601902745965	0
0	153	17.982602262231	1
0	155	18.096524435617	2
0	156	18.115524507793	1
0	160	18.225874039005	2
0	161	18.629146269621	1
0	164	19.142768031449	0
0	176	20.301785118225	1
0	177	20.752963763415	0
0	181	21.005228584658	1
0	182	21.266585525243	0
0	186	21.304013518395	1
0	187	21.780207287071	0
0	196	22.980876893559	1
0	197	23.445750528553	0
0	206	25.125496439612	1
0	207	25.148646483755	0
0	216	25.903847658636	1
0	217	26.201533409438	0
0	226	27.309497548915	1
0	227	27.697453420071	0
0	236	28.899405808262	1
0	238	29.095696025431	2
0	239	29.336210037082	1
0	242	29.84983179891	0
0	256	32.21290857103	1
0	257	32.548867452736	0
0	261	32.601451158025	1
0	262	33.062489214564	0
0	276	35.345799254289	1
0	277	35.405477301445	0
0	296	40.118568506039	1
0	297	40.597585043054	0
0	301	40.949450435254	1
0	302	41.111206804882	0
0	321	44.144175443426	1
0	323	44.386734184015	2
0	325	44.397406995913	3
0	326	44.448121726711	2
0	329	44.961743488539	1
0	333	45.026696480115	2
0	334	45.475365250367	1
0	336	45.475365250367	0
0	339	45.625229766863	1
0	341	45.696014920053	2
0	343	45.759079235665	3
0	344	45.988987012195	2
0	347	46.502608774023	1
0	350	47.016230535851	0
0	373	50.437642575594	1
0	375	50.450925624215	2
0	376	50.864966951238	1
0	380	51.036349051164	2
0	382	51.084910708832	3
0	383	51.378588713066	2
0	385	51.378588713066	1
0	388	51.850632079442	2
0	389	51.892210474894	1
0	392	52.405832236722	0
0	396	52.465790676786	1
0	397	52.91945399855	0
0	401	53.201924194428	1
0	402	53.433075760378	0
0	411	54.673719226835	1
0	412	55.061886318064	0
0	421	56.335194169282	1
0	422	56.839665351852	0
0	426	56.870591177165	1
0	428	57.237770813021	2
0	429	57.35328711368	1
0	432	57.866908875508	0
0	451	61.864374335015	1
0	452	62.317380894291	0
0	486	70.001007395937	1
0	487	70.053528786792	0
0	496	71.406983480617	1
0	498	71.467133542348	2
0	500	71.586439104475	3
0	501	71.602752337549	2
0	504	72.116374099377	1
0	508	72.211406816274	2
0	509	72.629995861205	1
0	511	72.629995861205	0
0	514	72.944593880244	1
0	516	72.971758487593	2
0	517	73.143617623033	1
0	520	73.657239384861	0
0	534	76.063461552991	1
0	535	76.13355190781	0
0	539	76.564039671819	1
0	540	76.647173669638	0
0	544	76.855316996836	1
0	545	77.160795431466	0
0	549	77.49817335887	1
0	550	77.674417193294	0
0	554	77.784874777988	1
0	555	78.188038955122	0
0	569	80.997326462253	1
0	570	81.366805115698	0
0	609	88.684114426997	1
0	610	89.127717353215	0
0	614	89.370333017163	1
0	615	89.641339115043	0
0	624	91.207734906618	1
0	625	91.5393844802	0
0	629	92.00452088834	1
0	630	92.053006242028	0
0	634	92.061463477091	1
0	635	92.566628003856	0
0	664	100.885761765843	1
0	665	101.185412848176	0
0	669	101.515729638774	1
0	671	101.557536336225	2
0	672	101.699034610004	1
0	676	101.792130008807	2
0	678	102.126065049669	3
0	679	102.212656371832	2
0	683	102.413366203129	3
0	684	102.72627813366	2
0	686	102.72627813366	1
0	689	103.115339918026	2
0	690	103.239899895488	1
0	693	103.753521657316	0
0	702	104.615757322083	1
0	704	104.719582282315	2
0	706	104.861257742499	3
0	707	104.881479604973	2
0	711	104.896507662476	3
0	712	105.395101366801	2
0	715	105.908723128629	1
0	717	105.908723128629	0
0	734	109.355002551409	1
0	735	109.602456974376	0
0	739	109.82881425038	1
0	741	109.863227003214	2
0	742	110.116078736204	1
0	745	110.629700498032	0
0	764	115.008488225706	1
0	766	115.0716638286	2
0	768	115.406357557299	3
0	770	115.450498898829	4
0	771	115.515601624868	3
0	774	116.029223386696	2
0	776	116.029223386696	1
0	778	116.542845148524	0
0	800	119.70482389103	1
0	801	120.191311958852	0
0	805	120.204700116628	1
0	806	120.70493372068	0
0	810	121.055490802705	1
0	811	121.218555482508	0
0	820	122.702217566626	1
0	821	123.019630537074	0
0	845	128.189672092787	1
0	846	128.22421208135	0
0	865	132.321070901069	1
0	866	132.735720687892	0
0	870	132.81393278443	1
0	872	133.200088600053	2
0	873	133.24934244972	1
0	877	133.326173380007	2
0	879	133.759032609328	3
0	880	133.762964211548	2
0	883	134.276585973376	1
0	885	134.276585973376	0
0	888	134.569949819323	1
0	889	134.790207735204	0
0	893	134.879536887098	1
0	895	135.163280259762	2
0	897	135.22347503629	3
0	898	135.303829497032	2
0	902	135.392477327182	3
0	904	135.39965742177	4
0	906	135.687855558007	5
0	907	135.81745125886	4
0	910	136.331073020688	3
0	912	136.331073020688	2
0	913	136.331073020688	1
0	914	136.331073020688	0
0	927	138.763878010256	1
0	928	139.008417129376	0
0	937	139.779759085941	1
0	938	140.106050484873	0
0	942	140.249183319314	1
0	944	140.284870091562	2
0	945	140.619672246701	1
0	948	141.133294008529	0
0	952	141.287919176934	1
0	954	141.408374457329	2
0	955	141.646915770357	1
0	958	142.160537532185	0
0	967	142.821917609667	1
0	968	143.252766565538	0
0	972	143.569681945033	1
0	973	143.766388327366	0
0	982	144.880192354582	1
0	983	144.994561610855	0
0	987	145.039978629954	1
0	988	145.508183372683	0
0	992	145.661575216655	1
0	993	146.021805134511	0
0	997	146.022213284084	1
0	998	146.535426896339	0
0	1002	146.604200185253	1
0	1003	147.049048658167	0
0	1027	152.123369219708	1
0	1028	152.201845038754	0
0	1042	155.043565290371	1
0	1044	155.272951976062	2
0	1045	155.459367766863	1
0	1048	155.972989528691	0
0	1067	159.462732430364	1
0	1069	159.469790221338	2
0	1070	159.588846794473	1
0	1074	159.613044843945	2
0	1076	160.002349867856	3
0	1077	160.102468556301	2
0	1081	160.388868333479	3
0	1082	160.616090318129	2
0	1084	160.616090318129	1
0	1086	161.129712079957	0
0	1095	162.090323673173	1
0	1096	162.600844899896	0
0	1100	162.653178691408	1
0	1102	162.970684470105	2
0	1105	163.249006050124	1
0	1107	163.762627811952	0
0	1121	165.397360460847	1
0	1122	165.563714167339	0
0	1126	165.76916818456	1
0	1127	166.077335929167	0
0	1136	166.839075834241	1
0	1137	167.324874608988	0
0	1151	169.089904718958	1
0	1152	169.521730807747	0
0	1171	173.498458096142	1
0	1173	173.857260626698	2
0	1174	173.940171969648	1
0	1178	174.01895366685	2
0	1180	174.449461835341	3
0	1182	174.452195199418	4
0	1183	174.453793731476	3
0	1186	174.967415493304	2
0	1188	174.967415493304	1
0	1190	175.481037255132	0
0	1202	176.967006755475	1
0	1203	176.986588623034	0
0	1207	177.107164263766	1
0	1208	177.500210384862	0
0	1222	179.090322612583	1
0	1223	179.378194023807	0
0	1227	179.608710233584	1
0	1228	179.891815785635	0
0	1232	180.142835421499	1
0	1234	180.154067109241	2
0	1235	180.405437547463	1
0	1239	180.466908508093	2
0	1241	180.859685475822	3
0	1242	180.919059309291	2
0	1246	181.011775461463	3
0	1248	181.053445489488	4
0	1249	181.432681071119	3
0	1251	181.432681071119	2
0	1253	181.946302832947	1
0	1255	181.946302832947	0
0	1281	188.492750393577	1
0	1282	188.866336454982	0
0	1286	188.895171170158	1
0	1288	189.137767894715	2
0	1289	189.37995821681	1
0	1293	189.641363731589	2
0	1294	189.893579978638	1
0	1297	190.407201740466	0
0	1301	190.705562387335	1
0	1303	190.7355812373	2
0	1304	190.920823502294	1
0	1307	191.434445264122	0
0	1351	200.801182544798	1
0	1352	201.245521673163	0
0	1356	201.351220234061	1
0	1357	201.759143434991	0
0	1366	202.496378689526	1
0	1368	202.535508248759	2
0	1369	202.818320752497	1
0	1373	203.18110440863	2
0	1374	203.331942514325	1
0	1377	203.845564276153	0
0	1381	203.960185907544	1
0	1383	204.354192115583	2
0	1384	204.359186037981	1
0	1387	204.872807799809	0
0	1391	205.272845169833	1
0	1392	205.386429561637	0
0	1401	206.774667262454	1
0	1402	206.883917049581	0
0	1406	207.019099184028	1
0	1408	207.082703075588	2
0	1409	207.397538811409	1
0	1412	207.911160573237	0
0	1416	208.004148540687	1
0	1418	208.168442489321	2
0	1420	208.267765254363	3
0	1422	208.357699351694	4
0	1423	208.424782335065	3
0	1426	208.938404096893	2
0	1429	209.452025858721	1
0	1431	209.452025858721	0
0	1437	209.631241451506	1
0	1439	209.920078502414	2
0	1440	210.140403532417	1
0	1443	210.654025294245	0
0	1447	210.741598203219	1
0	1448	211.167647056073	0
0	1452	211.400125567618	1
0	1454	211.613212740449	2
0	1455	211.681268817901	1
0	1459	211.801867040533	2
0	1460	212.194890579729	1
0	1464	212.495796296498	2
0	1466	212.603442454605	3
0	1467	212.708512341557	2
0	1469	212.708512341557	1
0	1472	213.151673210188	2
0	1473	213.222134103385	1
0	1477	213.243572190748	2
0	1480	213.870295253613	1
0	1482	214.383917015441	0
0	1489	215.152615513684	1
0	1490	215.587816755293	0
0	1499	217.398500660228	1
0	1501	217.49725326546	2
0	1502	217.845646161177	1
0	1506	217.95851674356	2
0	1508	218.068213402035	3
0	1510	218.351735849367	4
0	1511	218.359267923005	3
0	1515	218.4151463372	4
0	1516	218.872889684833	3
0	1518	218.872889684833	2
0	1520	219.386511446661	1
0	1522	219.386511446661	0
0	1528	219.631232564652	1
0	1529	220.015589168827	0
0	1533	220.033548668355	1
0	1534	220.529210930655	0
0	1538	220.647850205251	1
0	1540	220.738648500087	2
0	1542	220.946104567379	3
0	1543	221.042832692483	2
0	1546	221.556454454311	1
0	1549	222.070076216139	0
0	1561	222.784365705252	1
0	1563	222.818091185482	2
0	1564	223.279901118889	1
0	1568	223.577396329725	2
0	1569	223.793522880717	1
0	1571	223.793522880717	0
0	1574	223.793932819061	1
0	1576	224.104508396811	2
0	1577	224.307144642545	1
0	1581	224.562993100042	2
0	1582	224.820766404373	1
0	1586	225.093735180093	2
0	1588	225.177180074178	3
0	1590	225.177842008815	4
0	1591	225.334388166201	3
0	1594	225.848009928029	2
0	1597	226.361631689857	1
0	1599	226.361631689857	0
0	1605	228.290658855485	1
0	1607	228.295979618864	2
0	1608	228.622132347193	1
0	1611	229.135754109021	0
0	1620	229.934813843246	1
0	1622	230.19457080789	2
0	1624	230.257248217542	3
0	1625	230.38983962085	2
0	1628	230.903461382678	1
0	1631	231.417083144506	0
0	1643	232.31501522273	1
0	1645	232.347243564456	2
0	1647	232.781671978334	3
0	1648	232.817443954064	2
0	1652	233.204902805328	3
0	1653	233.331065715892	2
0	1655	233.331065715892	1
0	1658	233.396613640387	2
0	1660	233.600182884984	3
0	1661	233.84468747772	2
0	1664	234.358309239548	1
0	1666	234.358309239548	0
0	1669	234.730819988528	1
0	1670	234.871931001376	0
0	1674	235.249802461503	1
0	1675	235.385552763204	0
0	1699	243.192595566414	1
0	1700	243.391915203961	0
0	1714	245.412313254522	1
0	1715	245.629921434872	0
0	1724	246.647586680046	1
0	1725	246.76376691419	0
0	1729	247.104104974156	1
0	1730	247.277388676018	0
0	1734	247.638644261778	1
0	1735	247.791010437846	0
0	1739	247.842816495621	1
0	1741	248.047365418507	2
0	1742	248.304632199674	1
0	1746	248.365117935466	2
0	1748	248.411152385742	3
0	1750	248.583798481411	4
0	1751	248.818253961502	3
0	1755	249.302774412575	4
0	1756	249.33187572333	3
0	1758	249.33187572333	2
0	1759	249.33187572333	1
0	1762	249.410530959209	2
0	1763	249.845497485158	1
0	1767	249.979325101143	2
0	1769	250.019665890957	3
0	1770	250.359119246986	2
0	1772	250.359119246986	1
0	1774	250.872741008814	0
0	1778	251.312253246884	1
0	1779	251.386362770642	0
0	1788	252.539893755263	1
0	1789	252.608608612155	0
0	1793	252.984857227177	1
0	1794	253.122230373983	0
0	1798	253.35476362179	1
0	1799	253.635852135811	0
0	1808	254.601478655957	1
0	1810	254.701412528493	2
0	1811	255.04624151636	1
0	1815	255.073725818572	2
0	1817	255.460257719954	3
0	1818	255.559863278188	2
0	1822	255.956968444818	3
0	1823	256.073485040016	2
0	1825	256.073485040016	1
0	1827	256.587106801844	0
0	1836	257.765469134622	1
0	1837	257.822622241079	0
0	1841	257.86924112089	1
0	1843	258.066661877296	2
0	1845	258.315762377992	3
0	1846	258.336244002907	2
0	1849	258.849865764735	1
0	1852	259.363487526563	0
0	1859	259.807393001512	1
0	1860	259.989874355011	0
0	1864	260.004826621631	1
0	1865	260.503496116839	0
0	1874	262.465741321869	1
0	1877	262.603724148727	0
0	1895	266.56452226761	1
0	1896	266.919455693837	0
0	1900	266.964369728038	1
0	1901	267.433077455665	0
0	1905	267.707056890082	1
0	1907	267.829710198758	2
0	1908	267.946699217493	1
0	1912	268.203382132079	2
0	1913	268.460320979321	1
0	1916	268.973942741149	0
0	1925	270.895158053001	1
0	1927	271.139532504982	2
0	1928	271.156962895265	1
0	1932	271.581645719165	2
0	1934	271.603175382823	3
0	1935	271.670584657093	2
0	1939	271.782115444545	3
0	1941	272.123915256627	4
0	1942	272.184206418921	3
0	1945	272.697828180749	2
0	1947	272.697828180749	1
0	1948	272.697828180749	0
0	1951	273.020557450071	1
0	1952	273.211449942577	0
0	1956	273.305167748835	1
0	1958	273.578662861794	2
0	1959	273.725071704405	1
0	1963	273.921906091684	2
0	1965	274.13511808462	3
0	1966	274.238693466233	2
0	1970	274.685583937451	3
0	1971	274.752315228061	2
0	1975	274.753527905969	3
0	1977	274.824349718723	4
0	1978	275.265936989889	3
0	1980	275.265936989889	2
0	1983	275.749414533406	3
0	1984	275.779558751717	2
0	1986	275.779558751717	1
0	1987	275.779558751717	0
0	1995	277.071781171184	1
0	1996	277.313345455573	0
0	2000	277.771384262687	1
0	2002	277.787360044313	2
0	2003	277.826967217401	1
0	2006	278.340588979229	0
0	2020	283.36619505881	1
0	2022	283.518897535482	2
0	2023	283.73626757166	1
0	2027	284.037961320691	2
0	2028	284.249889333488	1
0	2032	284.595518681504	2
0	2033	284.763511095316	1
0	2036	285.277132857144	0
0	2040	285.73831802575	1
0	2041	285.790754618972	0
0	2045	285.905652840485	1
0	2046	286.3043763808	0
0	2050	286.737546029436	1
0	2051	286.817998142628	0
0	2055	287.151488671108	1
0	2057	287.153021535076	2
0	2058	287.331619904456	1
0	2062	287.41346666092	2
0	2064	287.512830279747	3
0	2065	287.845241666284	2
0	2069	288.219005919497	3
0	2070	288.358863428112	2
0	2072	288.358863428112	1
0	2074	288.87248518994	0
0	2098	297.239101409851	1
0	2100	297.507800941879	2
0	2101	297.585035772707	1
0	2105	297.606729095187	2
0	2106	298.098657534535	1
0	2109	298.612279296363	0
0	2126	302.749072183608	1
0	2128	303.095264971118	2
0	2130	303.199619764003	3
0	2131	303.205097235965	2
0	2134	303.718718997793	1
0	2137	304.232340759621	0
0	2144	305.310674049272	1
0	2145	305.429316164199	0
0	2149	305.625627972178	1
0	2151	305.740003724332	2
0	2152	305.942937926027	1
0	2156	306.032310407885	2
0	2157	306.456559687855	1
0	2160	306.970181449683	0
0	2182	315.646378405405	1
0	2183	315.661535578618	0
0	2192	318.059201300135	1
0	2193	318.149609524205	0
0	2207	319.889027437812	1
0	2209	320.049140907807	2
0	2211	320.159209824248	3
0	2212	320.166888222102	2
0	2216	320.40792248717	3
0	2217	320.68050998393	2
0	2220	321.194131745758	1
0	2222	321.194131745758	0
0	2225	321.676921447005	1
0	2227	321.690364237819	2
0	2228	321.707753507586	1
0	2231	322.221375269414	0
0	2235	322.643095583633	1
0	2236	322.734997031242	0
0	2261	328.489661418432	1
0	2262	328.860496617293	0
0	2271	329.550254980156	1
0	2272	329.967127895991	0
0	2296	333.731306171208	1
0	2298	334.032789636358	2
0	2299	334.049796466307	1
0	2302	334.563418228135	0
0	2311	335.439055841504	1
0	2312	335.656385414063	0
0	2316	335.817569627506	1
0	2317	336.170007175891	0
0	2326	338.107220810388	1
0	2327	338.429384909968	0
0	2336	340.793193184837	1
0	2337	340.915091483646	0
0	2341	341.136764604818	1
0	2342	341.428713245474	0
0	2346	341.552669155832	1
0	2347	341.942335007302	0
0	2361	344.13597887024	1
0	2362	344.584554233829	0
0	2371	345.766018416678	1
0	2372	345.824121340269	0
0	2381	347.79036114966	1
0	2383	348.056185644331	2
0	2384	348.20513840011	1
0	2388	348.3199773629	2
0	2389	348.718760161938	1
0	2392	349.232381923766	0
0	2399	349.920766776442	1
0	2401	350.108572270622	2
0	2402	350.225348986778	1
0	2405	350.738970748606	0
0	2414	352.143946399496	1
0	2415	352.281176675203	0
0	2424	355.139002500347	1
0	2426	355.444115992706	2
0	2427	355.566190782854	1
0	2431	355.58537483157	2
0	2432	356.079812544682	1
0	2436	356.291137576093	2
0	2437	356.59343430651	1
0	2439	356.59343430651	0
0	2457	360.181982735481	1
0	2459	360.264792238609	2
0	2460	360.411083006839	1
0	2463	360.924704768667	0
0	2477	362.853924052636	1
0	2478	363.249687682159	0
0	2487	364.259133618699	1
0	2488	364.577219370427	0
0	2502	368.704012232494	1
0	2503	368.830395829066	0
0	2512	369.887805980356	1
0	2513	369.91524970515	0
0	2517	369.964280173919	1
0	2519	370.031359125308	2
0	2520	370.428871466978	1
0	2523	370.942493228806	0
0	2555	383.291135693158	1
0	2556	383.582646735352	0
0	2560	383.91096016194	1
0	2561	384.09626849718	0
0	2565	384.412127617152	1
0	2566	384.609890259008	0
0	2570	384.811009259665	1
0	2572	384.815403693941	2
0	2573	385.123512020836	1
0	2577	385.485271808919	2
0	2578	385.637133782664	1
0	2581	386.150755544492	0
0	2595	389.062958877312	1
0	2596	389.214247697497	0
0	2600	389.274540713257	1
0	2602	389.695255200255	2
0	2603	389.727869459325	1
0	2607	390.069005594733	2
0	2609	390.122485241255	3
0	2610	390.241491221153	2
0	2613	390.755112982981	1
0	2618	391.403274133209	0
0	2624	392.923932470826	1
0	2626	393.270253105383	2
0	2628	393.318686926512	3
0	2629	393.396794444965	2
0	2633	393.568844694382	3
0	2634	393.910416206793	2
0	2637	394.424037968621	1
0	2639	394.424037968621	0
0	2657	397.448027741578	1
0	2658	397.695271475822	0
0	2667	398.673508910142	1
0	2668	398.926745375086	0
0	2682	402.023048230086	1
0	2683	402.344314551058	0
0	2692	404.471390985491	1
0	2694	404.646610877301	2
0	2695	404.65514295581	1
0	2699	405.153974894054	2
0	2700	405.168764717638	1
0	2703	405.682386479466	0
0	2722	409.720151608298	1
0	2723	409.917468415771	0
0	2737	411.490185784656	1
0	2738	411.858160239681	0
0	2747	413.12154943124	1
0	2748	413.249414062434	0
0	2752	413.481406780107	1
0	2753	413.763035824262	0
0	2757	413.829094404689	1
0	2759	414.01507506	2
0	2760	414.27665758609	1
0	2763	414.790279347918	0
0	2772	415.562807608985	1
0	2774	415.645498389317	2
0	2775	416.033483801485	1
0	2778	416.547105563313	0
0	2800	421.016595817176	1
0	2801	421.387928838953	0
0	2810	422.162657108182	1
0	2812	422.239428692338	2
0	2813	422.657025104027	1
0	2816	423.170646865855	0
0	2833	426.98485821446	1
0	2834	427.439389192962	0
0	2838	427.798593063643	1
0	2839	427.95301095479	0
0	2848	429.742601152117	1
0	2850	429.840435262543	2
0	2852	429.966776215631	3
0	2853	430.021409146807	2
0	2857	430.123897713413	3
0	2859	430.499724292586	4
0	2860	430.535030908635	3
0	2864	431.001571329138	4
0	2865	431.048652670463	3
0	2867	431.048652670463	2
0	2868	431.048652670463	1
0	2870	431.562274432291	0
0	2874	431.574096039916	1
0	2876	431.578844233054	2
0	2877	432.075896194119	1
0	2880	432.589517955947	0
0	2887	433.629985851661	1
0	2888	433.77393521891	0
0	2892	433.966811680882	1
0	2894	433.981042589057	2
0	2896	434.152670863649	3
0	2898	434.211207687158	4
0	2899	434.287556980738	3
0	2902	434.801178742566	2
0	2906	434.850831415371	3
0	2908	435.008974603339	4
0	2909	435.314800504394	3
0	2911	435.314800504394	2
0	2912	435.314800504394	1
0	2915	435.4248357603	2
0	2916	435.828422266222	1
0	2919	436.34204402805	0
0	2931	438.72748436928	1
0	2932	439.078336235133	0
0	2941	440.090311025774	1
0	2943	440.311598817447	2
0	2944	440.595835627575	1
0	2947	441.109457389403	0
0	2951	441.420645249623	1
0	2952	441.623079151231	0
0	2971	445.334971022274	1
0	2973	445.531626852385	2
0	2974	445.689334594281	1
0	2978	445.912467740278	2
0	2979	446.202956356109	1
0	2983	446.29155693945	2
0	2985	446.322326008606	3
0	2987	446.510310103677	4
0	2988	446.716578117937	3
0	2991	447.230199879765	2
0	2993	447.230199879765	1
0	2994	447.230199879765	0
0	2997	447.475765682616	1
0	2998	447.743821641593	0
0	3002	448.05879048933	1
0	3005	448.391982791821	0
0	3008	448.421588367006	1
0	3009	448.905604553649	0
0	3018	450.483932413009	1
0	3019	450.69962205862	0
0	3023	451.037107890002	1
0	3025	451.197939285754	2
0	3026	451.213243820448	1
0	3029	451.726865582276	0
0	3053	455.978500344734	1
0	3055	456.003471232474	2
0	3057	456.065600681705	3
0	3059	456.197203540791	4
0	3060	456.216249486037	3
0	3063	456.729871247865	2
0	3066	457.243493009693	1
0	3068	457.243493009693	0
0	3074	457.760255799944	1
0	3075	457.904321289328	0
0	3089	461.672429321409	1
0	3090	461.702080190526	0
0	3094	462.069437006302	1
0	3095	462.215701952354	0
0	3099	462.293243433774	1
0	3101	462.472403191278	2
0	3102	462.729323714182	1
0	3106	462.813678177339	2
0	3108	462.824364929297	3
0	3110	463.058919621667	4
0	3111	463.24294547601	3
0	3114	463.756567237838	2
0	3116	463.756567237838	1
0	3117	463.756567237838	0
0	3135	468.213950751887	1
0	3136	468.545343601672	0
0	3150	472.4706173201	1
0	3151	472.761120445424	0
0	3165	475.067816247953	1
0	3167	475.102250836574	2
0	3168	475.418314744884	1
0	3171	475.931936506712	0
0	3175	476.249453424986	1
0	3176	476.44555826854	0
0	3180	476.80164674941	1
0	3181	476.959180030368	0
0	3185	477.456214993451	1
0	3186	477.472801792196	0
0	3190	477.672949195017	1
0	3192	477.67322072083	2
0	3193	477.986423554024	1
0	3197	478.374085678142	2
0	3198	478.500045315852	1
0	3201	479.01366707768	0
0	3205	479.245638004688	1
0	3207	479.501353776231	2
0	3208	479.527288839508	1
0	3212	479.822157240281	2
0	3213	480.040910601336	1
0	3217	480.075551186014	2
0	3219	480.291890811894	3
0	3221	480.428727758785	4
0	3223	480.533930998364	5
0	3224	480.554532363164	4
0	3227	481.068154124992	3
0	3229	481.068154124992	2
0	3231	481.58177588682	1
0	3233	481.58177588682	0
0	3239	482.335880437905	1
0	3241	482.40911331411	2
0	3242	482.412242226674	1
0	3245	482.925863988502	0
0	3254	483.584041364393	1
0	3255	484.017312221821	0
0	3264	484.580683461109	1
0	3266	484.873114252775	2
0	3267	485.074728991278	1
0	3270	485.588350753106	0
0	3274	485.714364475517	1
0	3275	486.101972514934	0
0	3279	486.21683466917	1
0	3281	486.285382080364	2
0	3283	486.593699413076	3
0	3284	486.615594276762	2
0	3288	486.674145056757	3
0	3290	486.95198453808	4
0	3292	487.087979914907	5
0	3293	487.12921603859	4
0	3296	487.642837800418	3
0	3298	487.642837800418	2
0	3299	487.642837800418	1
0	3301	488.156459562246	0
0	3308	488.831904857497	1
0	3309	488.906726062008	0
0	3313	489.198203221595	1
0	3315	489.301348170326	2
0	3316	489.420347823836	1
0	3319	489.933969585664	0
0	3333	491.444441347868	1
0	3334	491.828676313789	0
0	3338	491.936183678021	1
0	3339	492.342298075617	0
0	3343	492.814767886489	1
0	3344	492.855919837445	0
0	3353	493.960126480215	1
0	3355	494.004903263949	2
0	3357	494.180875625235	3
0	3358	494.367771638405	2
0	3361	494.881393400233	1
0	3364	495.395015162061	0
0	3381	498.723237267243	1
0	3382	499.107312985013	0
0	3386	499.188798817187	1
0	3388	499.375538481397	2
0	3390	499.476857024168	3
0	3393	499.755474135241	2
0	3395	500.269095897069	1
0	3397	500.269095897069	0
0	3400	500.629140144105	1
0	3401	500.782717658897	0
0	3405	500.943231004396	1
0	3406	501.296339420725	0
0	3415	502.220319587802	1
0	3417	502.481566862573	2
0	3418	502.488210832649	1
0	3421	503.001832594477	0
0	3450	513.923590770988	1
0	3452	514.06482915096	2
0	3454	514.073183632468	3
0	3455	514.277823652652	2
0	3458	514.79144541448	1
0	3461	515.305067176308	0
0	3468	515.939361947322	1
0	3469	516.375255413472	0
0	3473	516.472037895235	1
0	3474	516.8888771753	0
0	3483	517.782865333358	1
0	3484	518.221358676484	0
0	3493	519.792536976897	1
0	3494	519.962672447172	0
0	3503	522.996571503738	1
0	3505	523.097628443015	2
0	3506	523.3353863077	1
0	3510	523.381111330137	2
0	3511	523.849008069528	1
0	3515	524.142585451217	2
0	3516	524.362629831356	1
0	3518	524.362629831356	0
0	3521	524.694401863858	1
0	3522	524.876251593184	0
0	3526	525.308246330008	1
0	3527	525.389873355012	0
0	3541	527.65593120311	1
0	3543	527.686476119674	2
0	3545	528.105618262128	3
0	3546	528.125195616734	2
0	3549	528.638817378562	1
0	3551	528.638817378562	0
0	3554	528.640049027384	1
0	3556	528.718282881743	2
0	3557	529.15243914039	1
0	3560	529.666060902218	0
0	3567	530.2021357643	1
0	3568	530.701029186398	0
0	3572	531.063327523341	1
0	3574	531.104345266699	2
0	3575	531.214650948226	1
0	3578	531.728272710054	0
0	3582	532.120237993076	1
0	3584	532.175020113352	2
0	3586	532.237023708676	3
0	3587	532.241894471882	2
0	3591	532.628085639674	3
0	3592	532.75551623371	2
0	3596	532.979728078654	3
0	3598	533.207162948252	4
0	3599	533.269137995538	3
0	3601	533.269137995538	2
0	3603	533.782759757366	1
0	3606	534.296381519194	0
0	3618	536.152703182001	1
0	3620	536.178739036688	2
0	3621	536.266681916667	1
0	3625	536.342124088085	2
0	3626	536.780303678495	1
0	3629	537.293925440323	0
0	3636	537.82497517304	1
0	3637	538.026581771725	0
0	3646	540.641515349973	1
0	3647	540.89957380363	0
0	3656	542.544183253774	1
0	3657	542.634107847894	0
0	3661	542.749477506402	1
0	3662	543.147729609722	0
0	3666	543.162486833631	1
0	3668	543.378372960774	2
0	3670	543.538989396306	3
0	3671	543.66135137155	2
0	3675	543.999973455406	3
0	3676	544.174973133378	2
0	3679	544.688594895206	1
0	3681	544.688594895206	0
0	3684	544.801314945706	1
0	3685	545.202216657034	0
0	3689	545.313236393006	1
0	3691	545.672002331896	2
0	3692	545.715838418862	1
0	3695	546.22946018069	0
0	3709	549.609926137793	1
0	3711	549.701567751262	2
0	3713	549.714804563124	3
0	3714	549.72081486356	2
0	3718	549.867089923589	3
0	3719	550.234436625388	2
0	3722	550.748058387216	1
0	3724	550.748058387216	0
0	3727	551.07827567339	1
0	3729	551.115573315224	2
0	3730	551.261680149044	1
0	3734	551.705766467822	2
0	3735	551.775301910872	1
0	3739	551.953926973236	2
0	3740	552.2889236727	1
0	3743	552.802545434528	0
0	3747	553.186857510736	1
0	3748	553.316167196356	0
0	3762	556.698706878292	1
0	3763	556.795820651835	0
0	3778	560.55627483737	1
0	3779	560.58814101568	0
0	3783	560.756479033311	1
0	3785	560.80281773663	2
0	3787	561.098330140984	3
0	3788	561.101762777508	2
0	3791	561.615384539336	1
0	3794	562.129006301164	0
0	3811	566.804772810049	1
0	3812	566.881253576116	0
0	3821	568.000880689104	1
0	3823	568.324124209916	2
0	3824	568.424879235909	1
0	3827	568.938500997737	0
0	3831	569.378978835712	1
0	3832	569.452122759565	0
0	3836	569.647855709068	1
0	3838	569.660168428771	2
0	3839	569.965744521393	1
0	3842	570.479366283221	0
0	3846	570.552336012209	1
0	3848	570.910077234501	2
0	3850	570.92879255999	3
0	3851	570.992988045049	2
0	3855	571.476697854365	3
0	3856	571.506609806877	2
0	3860	571.681772782991	3
0	3861	572.020231568705	2
0	3863	572.020231568705	1
0	3865	572.533853330533	0
0	3869	573.023162339576	1
0	3870	573.047475092361	0
0	3879	574.460088860158	1
0	3880	574.94059541022	0
0	3884	575.326842036167	1
0	3885	575.454217172048	0
0	3889	575.538871343931	1
0	3890	575.967838933876	0
0	3929	584.019974839294	1
0	3930	584.191265209942	0
0	3934	584.617882977818	1
0	3935	584.70488697177	0
0	3949	587.067674297406	1
0	3951	587.320507821637	2
0	3953	587.409407002247	3
0	3954	587.512684930608	2
0	3958	587.54461576753	3
0	3960	587.746958971414	4
0	3961	588.026306692436	3
0	3964	588.539928454264	2
0	3966	588.539928454264	1
0	3967	588.539928454264	0
0	3975	590.30305012537	1
0	3977	590.351422196441	2
0	3978	590.550092702661	1
0	3982	590.966929188551	2
0	3983	591.063714464489	1
0	3987	591.113075612382	2
0	3988	591.577336226317	1
0	3991	592.090957988145	0
0	3998	592.652739601293	1
0	3999	592.798408984961	0
0	4008	593.57089286393	1
0	4010	593.824548888102	2
0	4011	594.001101248463	1
0	4015	594.274793964541	2
0	4016	594.514723010291	1
0	4019	595.028344772119	0
0	4028	596.004880310829	1
0	4030	596.214091282751	2
0	4031	596.444803341095	1
0	4035	596.712322360222	2
0	4036	596.958425102923	1
0	4039	597.472046864751	0
0	4053	600.854411642817	1
0	4054	600.99924488785	0
0	4073	605.35693658917	1
0	4074	605.638813553508	0
0	4078	605.996035967425	1
0	4080	606.05290802778	2
0	4081	606.152435315336	1
0	4084	606.666057077164	0
0	4088	607.146501192976	1
0	4089	607.179678838992	0
0	4098	608.113306869611	1
0	4099	608.500199387047	0
0	4108	613.02077854416	1
0	4109	613.312330642618	0
0	4113	613.376518960009	1
0	4114	613.825952404446	0
0	4118	613.963563401791	1
0	4119	614.339574166274	0
0	4123	614.844629238615	1
0	4124	614.853195928102	0
0	4128	614.986311341511	1
0	4130	615.236757050665	2
0	4131	615.36681768993	1
0	4136	616.014978840158	0
0	4139	616.415736923763	1
0	4140	616.528600601986	0
0	4144	616.873728485333	1
0	4145	617.042222363814	0
0	4154	618.719496533015	1
0	4155	619.066887532693	0
0	4164	620.745483106401	1
0	4165	621.037881693135	0
0	4169	621.060056800558	1
0	4171	621.505582280716	2
0	4172	621.551503454963	1
0	4176	621.844301900816	2
0	4177	622.065125216791	1
0	4181	622.088314828391	2
0	4182	622.578746978619	1
0	4185	623.092368740447	0
0	4192	624.000588201885	1
0	4194	624.117370962998	2
0	4195	624.125815088303	1
0	4198	624.639436850131	0
0	4217	627.523379595142	1
0	4218	627.700649635743	0
0	4222	627.765305322548	1
0	4223	628.214271397571	0
0	4227	628.614617015601	1
0	4228	628.727893159399	0
0	4242	632.964362768178	1
0	4243	633.332287092337	0
0	4252	634.388096483154	1
0	4254	634.708727743421	2
0	4256	634.844616206245	3
0	4257	634.874202183385	2
0	4261	635.036102712334	3
0	4262	635.387823945213	2
0	4265	635.901445707041	1
0	4267	635.901445707041	0
0	4285	638.582540987009	1
0	4286	638.62769229113	0
0	4290	638.742869720923	1
0	4292	639.086024159844	2
0	4293	639.141314052958	1
0	4296	639.654935814786	0
0	4300	639.984405534971	1
0	4301	640.168557576614	0
0	4305	640.477909659371	1
0	4306	640.682179338442	0
0	4310	640.740882501568	1
0	4312	640.817104193914	2
0	4313	641.19580110027	1
0	4317	641.323967436922	2
0	4318	641.709422862098	1
0	4320	641.709422862098	0
0	4323	641.717532882617	1
0	4324	642.223044623926	0
0	4353	652.809991951972	1
0	4354	653.09661152791	0
0	4368	655.156051267684	1
0	4369	655.633916154933	0
0	4378	656.71836194028	1
0	4379	656.884121102325	0
0	4383	657.39627618637	1
0	4384	657.397742864153	0
0	4393	658.647217715017	1
0	4395	659.05704391683	2
0	4396	659.080907489465	1
0	4399	659.594529251293	0
0	4403	659.913568819564	1
0	4404	660.108151013121	0
0	4408	660.448189982683	1
0	4409	660.621772774949	0
0	4423	663.690182138245	1
0	4424	664.044773980436	0
0	4433	665.579260141209	1
0	4434	665.796008634529	0
0	4443	666.582147358641	1
0	4444	667.00685419915	0
0	4453	667.933432881664	1
0	4454	668.37399134742	0
0	4458	668.578985366212	1
0	4459	668.887613109248	0
0	4473	670.458076356181	1
0	4474	670.832383727135	0
0	4488	673.0308529725	1
0	4490	673.384728227107	2
0	4491	673.434907585822	1
0	4496	674.08306873605	0
0	4504	676.242411436592	1
0	4505	676.636828910984	0
0	4519	679.65453546542	1
0	4520	680.117240817785	0
0	4524	680.453124060424	1
0	4525	680.630862579613	0
0	4539	683.875156718587	1
0	4541	684.067223382636	2
0	4542	684.067914418374	1
0	4546	684.290547279578	2
0	4547	684.581536180202	1
0	4551	684.739089556397	2
0	4552	685.09515794203	1
0	4556	685.320604464554	2
0	4558	685.455422230408	3
0	4559	685.608779703858	2
0	4563	685.949727670057	3
0	4564	686.122401465686	2
0	4567	686.636023227514	1
0	4569	686.636023227514	0
0	4572	687.13305949512	1
0	4573	687.149644989342	0
0	4577	687.459902817388	1
0	4579	687.498167913642	2
0	4580	687.66326675117	1
0	4583	688.176888512998	0
0	4597	692.073946898973	1
0	4598	692.245831428033	0
0	4602	692.354337808251	1
0	4604	692.527047091214	2
0	4605	692.759453189861	1
0	4609	693.006085796617	2
0	4611	693.146287048071	3
0	4612	693.273074951689	2
0	4616	693.443118614722	3
0	4617	693.786696713517	2
0	4621	694.138321573494	3
0	4623	694.241620459519	4
0	4624	694.300318475345	3
0	4626	694.300318475345	2
0	4628	694.813940237173	1
0	4632	695.125232094134	2
0	4633	695.327561999001	1
0	4635	695.327561999001	0
0	4643	698.480249058868	1
0	4644	698.723593908361	0
0	4648	699.031847773755	1
0	4650	699.178352580254	2
0	4651	699.237215670189	1
0	4655	699.294982279061	2
0	4656	699.750837432017	1
0	4659	700.264459193845	0
0	4676	702.188758242146	1
0	4678	702.271386343574	2
0	4680	702.459443196342	3
0	4681	702.671761937994	2
0	4684	703.185383699822	1
0	4686	703.185383699822	0
0	4689	703.346205008101	1
0	4690	703.69900546165	0
0	4694	703.859201429921	1
0	4695	704.212627223478	0
0	4699	704.276443496438	1
0	4700	704.726248985306	0
0	4704	704.739095469917	1
0	4706	704.849627086626	2
0	4707	705.239870747134	1
0	4710	705.753492508962	0
0	4717	706.533702999617	1
0	4718	706.545850817456	0
0	4737	712.449898634765	1
0	4738	712.50387507994	0
0	4742	712.517359177519	1
0	4744	712.968481488706	2
0	4745	713.017496841768	1
0	4749	713.485157976337	2
0	4750	713.531118603596	1
0	4754	713.537542180944	2
0	4756	713.885339319473	3
0	4758	713.923486554858	4
0	4759	714.044740365424	3
0	4763	714.377511396526	4
0	4764	714.558362127252	3
0	4766	714.558362127252	2
0	4769	715.039603060236	3
0	4770	715.07198388908	2
0	4772	715.07198388908	1
0	4774	715.585605650908	0
0	4783	717.44775283675	1
0	4784	717.606000627159	0
0	4803	724.037717030452	1
0	4805	724.216329787529	2
0	4807	724.325204550409	3
0	4808	724.472321425619	2
0	4811	724.985943187447	1
0	4815	725.11502045323	2
0	4817	725.336096380402	3
0	4818	725.499564949275	2
0	4820	725.499564949275	1
0	4822	726.013186711103	0
0	4836	729.117413720074	1
0	4837	729.337315109068	0
0	4846	730.469252431384	1
0	4848	730.56813608744	2
0	4849	730.812839802388	1
0	4853	730.947117964379	2
0	4855	731.138176370359	3
0	4856	731.326461564216	2
0	4859	731.840083326044	1
0	4861	731.840083326044	0
0	4864	732.152430253818	1
0	4865	732.353705087872	0
0	4874	734.874043684109	1
0	4876	734.990213769064	2
0	4880	735.313797503002	3
0	4881	735.319413861905	2
0	4884	735.328975406212	3
0	4885	735.833035623733	2
0	4888	736.346657385561	1
0	4890	736.346657385561	0
0	4896	737.566442265829	1
0	4897	737.642574036204	0
0	4906	738.60029312118	1
0	4907	738.800068521238	0
0	4921	743.401388710466	1
0	4923	743.586479120629	2
0	4924	743.787471390439	1
0	4928	743.930961103902	2
0	4929	744.301093152267	1
0	4933	744.48725727474	2
0	4934	744.814714914095	1
0	4937	745.328336675923	0
0	4941	745.740080934249	1
0	4942	745.841958437751	0
0	4951	747.254251296877	1
0	4952	747.453831557796	0
0	4956	747.477072542511	1
0	4957	747.967453319624	0
0	4966	749.924779814383	1
0	4967	750.308225259501	0
0	5001	758.513499065957	1
0	5003	758.644747206263	2
0	5004	758.693057185249	1
0	5007	759.206678947077	0
0	5011	759.28422216403	1
0	5012	759.720300708905	0
0	5021	761.315934578418	1
0	5022	761.363233940656	0
0	5026	761.448752768541	1
0	5028	761.691941836368	2
0	5030	761.701126773721	3
0	5031	761.876855702484	2
0	5035	761.970573377789	3
0	5036	762.390477464312	2
0	5040	762.425643002083	3
0	5041	762.90409922614	2
0	5043	762.90409922614	1
0	5044	762.90409922614	0
0	5057	765.228043742028	1
0	5058	765.607955079397	0
0	5087	771.416765581191	1
0	5089	771.783718874063	2
0	5090	771.91152836572	1
0	5093	772.425150127548	0
0	5097	772.461037932543	1
0	5099	772.477344330805	2
0	5101	772.848492281607	3
0	5102	772.938771889376	2
0	5105	773.452393651204	1
0	5107	773.452393651204	0
0	5110	773.749483162359	1
0	5111	773.966015413032	0
0	5115	774.150649156775	1
0	5117	774.197448102168	2
0	5118	774.47963717486	1
0	5122	774.651996330438	2
0	5123	774.993258936688	1
0	5126	775.506880698516	0
0	5135	776.407692371293	1
0	5136	776.841531337455	0
0	5140	777.059753105468	1
0	5141	777.355153099283	0
0	5145	777.535040444174	1
0	5147	777.537193379742	2
0	5149	777.634460045095	3
0	5150	777.868774861111	2
0	5153	778.382396622939	1
0	5157	778.526068348192	2
0	5158	778.896018384767	1
0	5160	778.896018384767	0
0	5163	778.98357806327	1
0	5165	779.275594539045	2
0	5166	779.409640146595	1
0	5170	779.809572007594	2
0	5171	779.923261908423	1
0	5174	780.436883670251	0
0	5198	786.005533973459	1
0	5199	786.130670839934	0
0	5203	786.161019729566	1
0	5204	786.644292601762	0
0	5208	787.029698133411	1
0	5209	787.15791436359	0
0	5223	789.709253733117	1
0	5224	789.933587623363	0
0	5233	791.738161098035	1
0	5234	791.838863028366	0
0	5243	793.348263804671	1
0	5246	793.544709880524	0
0	5249	793.717639258634	1
0	5251	793.981335732267	2
0	5252	794.058331642352	1
0	5256	794.342579771037	2
0	5258	794.43906893984	3
0	5259	794.57195340418	2
0	5263	794.630070114974	3
0	5264	795.085575166008	2
0	5268	795.197986170246	3
0	5270	795.410115771496	4
0	5271	795.599196927836	3
0	5273	795.599196927836	2
0	5274	795.599196927836	1
0	5277	796.005373925203	2
0	5279	796.057241593895	3
0	5280	796.112818689664	2
0	5284	796.18839135471	3
0	5285	796.626440451492	2
0	5289	796.855934262958	3
0	5291	797.083622785084	4
0	5292	797.14006221332	3
0	5294	797.14006221332	2
0	5295	797.14006221332	1
0	5297	797.653683975148	0
0	5311	799.326298953378	1
0	5312	799.625889558845	0
0	5326	800.920792659498	1
0	5327	801.236859004546	0
0	5341	805.825436755661	1
0	5342	806.01374533125	0
0	5356	811.557093230532	1
0	5357	811.95466406324	0
0	5371	815.102078214311	1
0	5372	815.232298428247	0
0	5381	816.361535281576	1
0	5382	816.605029746495	0
0	5391	817.607921596055	1
0	5392	818.114930758715	0
0	5401	820.085249849491	1
0	5402	820.302314426239	0
0	5411	822.035850726312	1
0	5412	822.508207536251	0
0	5416	822.789361757135	1
0	5418	822.806861785668	2
0	5419	823.021829298079	1
0	5422	823.535451059907	0
0	5426	823.816828946383	1
0	5427	824.049072821735	0
0	5456	828.924969018623	1
0	5458	829.146764299646	2
0	5459	829.264337305428	1
0	5462	829.777959067256	0
0	5471	833.018936678719	1
0	5472	833.389515367448	0
0	5476	833.643138968378	1
0	5478	833.817559990489	2
0	5479	833.903137129276	1
0	5483	834.012826424844	2
0	5484	834.416758891104	1
0	5488	834.651251616722	2
0	5489	834.930380652932	1
0	5491	834.930380652932	0
0	5494	835.010736553833	1
0	5496	835.095151292539	2
0	5497	835.44400241476	1
0	5500	835.957624176588	0
0	5504	835.960664574601	1
0	5505	836.471245938416	0
0	5509	836.559833940061	1
0	5511	836.969454903408	2
0	5512	836.984867700244	1
0	5516	837.359047804412	2
0	5517	837.498489462072	1
0	5520	838.0121112239	0
0	5534	842.212183098318	1
0	5535	842.570741090298	0
0	5539	842.779939779867	1
0	5541	842.842556434786	2
0	5543	842.950349202934	3
0	5544	843.084362852126	2
0	5548	843.421663550574	3
0	5549	843.597984613954	2
0	5552	844.111606375782	1
0	5554	844.111606375782	0
0	5557	844.145484243796	1
0	5558	844.62522813761	0
0	5562	844.767785131165	1
0	5563	845.138849899438	0
0	5572	846.322058527232	1
0	5573	846.370520548506	0
0	5582	849.164487840405	1
0	5583	849.334433286933	0
0	5587	849.54283088566	1
0	5589	849.665949667115	2
0	5590	849.848055048761	1
0	5594	850.274674794844	2
0	5595	850.361676810589	1
0	5598	850.875298572417	0
0	5602	851.026231660333	1
0	5604	851.063533786121	2
0	5606	851.078590873578	3
0	5607	851.388920334245	2
0	5611	851.73198089987	3
0	5612	851.902542096073	2
0	5616	852.038860520261	3
0	5618	852.196295474859	4
0	5621	852.550703246301	3
0	5622	852.550703246301	2
0	5625	852.759867373728	3
0	5627	852.795558249192	4
0	5628	853.064325008129	3
0	5630	853.064325008129	2
0	5632	853.577946769957	1
0	5635	854.091568531785	0
0	5647	856.516519448661	1
0	5648	856.836376982069	0
0	5687	870.3979458993	1
0	5688	870.855037178485	0
0	5692	870.963506140052	1
0	5693	871.368658940313	0
0	5702	872.101761260306	1
0	5704	872.292441965778	2
0	5705	872.429309779187	1
0	5708	872.942931541015	0
0	5717	874.956235831243	1
0	5718	875.406319926318	0
0	5727	876.790966528907	1
0	5728	876.998648529953	0
0	5737	878.999375565075	1
0	5738	879.16005252509	0
0	5752	881.140187056112	1
0	5753	881.256812628798	0
0	5757	881.333433972388	1
0	5758	881.770434390626	0
0	5772	884.269111237228	1
0	5773	884.460252949367	0
0	5777	884.745365541876	1
0	5779	884.793005499407	2
0	5780	884.973874711195	1
0	5783	885.487496473023	0
0	5792	886.674365226031	1
0	5793	886.975913973346	0
0	5797	887.167335994745	1
0	5799	887.379400366477	2
0	5800	887.489535735174	1
0	5803	888.003157497002	0
0	5807	888.098660686239	1
0	5808	888.51677925883	0
0	5812	888.933798180629	1
0	5813	889.030401020658	0
0	5817	889.146006838216	1
0	5818	889.544022782486	0
0	5827	890.377967984067	1
0	5828	890.580618153319	0
0	5832	891.024772443262	1
0	5833	891.094239915147	0
0	5837	891.29526644205	1
0	5838	891.607861676975	0
0	5842	891.627529602031	1
0	5843	892.121483438803	0
0	5862	895.273478171681	1
0	5863	895.489689803492	0
0	5867	895.836825388578	1
0	5868	896.00331156532	0
0	5882	898.068888093982	1
0	5884	898.326838918124	2
0	5885	898.342421139619	1
0	5889	898.581183938529	2
0	5890	898.856042901447	1
0	5894	899.199600413904	2
0	5896	899.33640588762	3
0	5897	899.369664663275	2
0	5901	899.418245211142	3
0	5903	899.629836870029	4
0	5904	899.883286425103	3
0	5908	900.252236087264	4
0	5909	900.396908186931	3
0	5911	900.396908186931	2
0	5912	900.396908186931	1
0	5915	900.544621606791	2
0	5916	900.910529948759	1
0	5919	901.424151710587	0
0	5923	901.592121504129	1
0	5924	901.937773472415	0
0	5928	902.385109812598	1
0	5929	902.451395234243	0
0	5933	902.493079690451	1
0	5934	902.965016996071	0
0	5938	903.423082603052	1
0	5939	903.478638757899	0
0	5948	905.255346758449	1
0	5950	905.362410528299	2
0	5952	905.402158547702	3
0	5953	905.460523750085	2
0	5957	905.92850167465	3
0	5958	905.974145511913	2
0	5962	906.308658577157	3
0	5963	906.487767273741	2
0	5965	906.487767273741	1
0	5967	907.001389035569	0
0	5971	907.128171017875	1
0	5973	907.262922482916	2
0	5974	907.515010797397	1
0	5978	908.01057385252	2
0	5979	908.028632559225	1
0	5983	908.09748363288	2
0	5987	908.600890459652	3
0	5988	908.676793709453	2
0	5991	908.895286750272	3
0	5992	909.190415471281	2
0	5994	909.190415471281	1
0	5997	909.606524969758	2
0	5998	909.704037233109	1
0	6001	910.217658994937	0
0	6015	912.701574381796	1
0	6016	913.196926279427	0
0	6030	915.244803659256	1
0	6031	915.533163263379	0
0	6035	915.731857318612	1
0	6036	916.046785025207	0
0	6040	916.172196901412	1
0	6041	916.560406787035	0
0	6050	917.583982759055	1
0	6051	917.76511275049	0
0	6055	917.843608210893	1
0	6056	918.278734512318	0
0	6060	918.326769207727	1
0	6062	918.33476375142	2
0	6064	918.615142085315	3
0	6065	918.792356274146	2
0	6069	919.269251371508	3
0	6070	919.305978035974	2
0	6072	919.305978035974	1
0	6074	919.819599797802	0
0	6093	925.480975303657	1
0	6094	925.517511087476	0
0	6113	930.319768707538	1
0	6114	930.788536284514	0
0	6123	931.997384683642	1
0	6124	932.186871054208	0
0	6148	938.703900096241	1
0	6149	938.997090768076	0
0	6158	939.986027280995	1
0	6159	940.242848253832	0
0	6168	941.013826941676	1
0	6170	941.189306717809	2
0	6172	941.203976755829	3
0	6173	941.324125808758	2
0	6177	941.501517944835	3
0	6178	941.837747570586	2
0	6182	941.885075048329	3
0	6183	942.351369332414	2
0	6185	942.351369332414	1
0	6188	942.660835268578	2
0	6189	942.864991094242	1
0	6191	942.864991094242	0
0	6194	942.986499707109	1
0	6196	943.125073804764	2
0	6198	943.27134619809	3
0	6199	943.37861285607	2
0	6203	943.773975862496	3
0	6204	943.892234617898	2
0	6208	944.121537052751	3
0	6210	944.195434825167	4
0	6211	944.405856379726	3
0	6213	944.405856379726	2
0	6215	944.919478141554	1
0	6218	945.433099903382	0
0	6225	945.965227582982	1
0	6226	946.268184182743	0
0	6235	947.074189854528	1
0	6237	947.158914144029	2
0	6238	947.415280723449	1
0	6242	947.634413087811	2
0	6243	947.928902485277	1
0	6247	948.161906634731	2
0	6249	948.176808787549	3
0	6250	948.442524247105	2
0	6254	948.456387703453	3
0	6255	948.956146008933	2
0	6259	949.043845036774	3
0	6260	949.469767770761	2
0	6262	949.469767770761	1
0	6263	949.469767770761	0
0	6271	950.335643656293	1
0	6272	950.685929108852	0
0	6281	951.804928611673	1
0	6283	951.819037271032	2
0	6284	951.874036213941	1
0	6288	952.230529334966	2
0	6289	952.387657975769	1
0	6293	952.388458787484	2
0	6295	952.480466984106	3
0	6296	952.901279737597	2
0	6300	953.271264022452	3
0	6301	953.414901499425	2
0	6303	953.414901499425	1
0	6304	953.414901499425	0
0	6307	953.624628758145	1
0	6308	953.928523261253	0
0	6312	954.098962499692	1
0	6314	954.423901829578	2
0	6315	954.442145023081	1
0	6319	954.943711917756	2
0	6320	954.955766784909	1
0	6323	955.469388546737	0
0	6342	959.020282058978	1
0	6343	959.129383907221	0
0	6347	959.453124697273	1
0	6348	959.643005669049	0
0	6352	959.725389501374	1
0	6354	960.145334623282	2
0	6355	960.156627430877	1
0	6358	960.670249192705	0
0	6362	960.995647702197	1
0	6365	961.318410342933	0
0	6368	961.321272587434	1
0	6369	961.832032104761	0
0	6383	964.36643555619	1
0	6385	964.472870003773	2
0	6387	964.493050957371	3
0	6388	964.578945354573	2
0	6391	965.092567116401	1
0	6395	965.315333231727	2
0	6396	965.606188878229	1
0	6398	965.606188878229	0
0	6401	965.943453102792	1
0	6402	966.119810640057	0
0	6406	966.486356820709	1
0	6407	966.633432401885	0
0	6411	966.657545150756	1
0	6412	967.147054163713	0
0	6431	970.870315080163	1
0	6432	970.910539658379	0
0	6441	971.46089222824	1
0	6443	971.66473703655	2
0	6445	971.718958164008	3
0	6446	971.962433984777	2
0	6450	972.027557974186	3
0	6452	972.395599073477	4
0	6453	972.476055746605	3
0	6456	972.989677508433	2
0	6458	972.989677508433	1
0	6459	972.989677508433	0
0	6462	973.13815771271	1
0	6463	973.503299270261	0
0	6472	974.93112106624	1
0	6473	975.409908455196	0
0	6482	976.18406598287	1
0	6484	976.633510442747	2
0	6485	976.633620797122	1
0	6488	977.14724255895	0
0	6492	977.284271270749	1
0	6494	977.639431828736	2
0	6495	977.660864320778	1
0	6498	978.174486082606	0
0	6512	982.074521392487	1
0	6514	982.300564468664	2
0	6515	982.367494965459	1
0	6518	982.881116727287	0
0	6527	984.742652209875	1
0	6528	984.766891066275	0
0	6537	986.148521803477	1
0	6538	986.577454831561	0
0	6547	987.380532615213	1
0	6548	987.796221767964	0
0	6562	990.181739312435	1
0	6563	990.241800945755	0
0	6577	993.092562838572	1
0	6578	993.529545239111	0
0	6587	994.672050890143	1
0	6588	994.983394006808	0
0	6602	997.614803121094	1
0	6604	997.784684819296	2
0	6605	997.955117235348	1
0	6609	998.260568674093	2
0	6610	998.468738997176	1
0	6613	998.982360759004	0
1	6	1.012782831387	0.09361438829
1	11	1.526404593215	0.040630216511
1	16	2.040026355043	0.40664227389
1	21	2.553648116871	0.158375635823
1	26	3.067269878699	0.435716396717
1	31	3.580891640527	0.314066524401
1	36	4.094513402355	0.122828912284
1	41	4.608135164183	0.057473156352
1	46	5.121756926011	0.001382537302
1	53	5.635378687839	0.486298978659
1	56	6.149000449667	0.774793286973
1	73	8.668064035055	0.478423517837
1	78	9.181685796883	0.621379253873
1	81	9.695307558711	0.630892733102
1	86	10.208929320539	0.161815550212
1	111	13.887070940605	0.286926951184
1	130	15.547415698653	0.413497636542
1	133	16.061037460481	0.924555817949
1	135	16.061037460481	0.516216369938
1	139	16.574659222309	0.302176215065
1	144	17.088280984137	0.215710471109
1	149	17.601902745965	0.25565709898
1	156	18.115524507793	0.132922245562
1	161	18.629146269621	0.532621834004
1	164	19.142768031449	0.916893992444
1	177	20.752963763415	0.45117864519
1	182	21.266585525243	0.261356940585
1	187	21.780207287071	0.476193768676
1	197	23.445750528553	0.464873634994
1	207	25.148646483755	0.023150044143
1	217	26.201533409438	0.297685750802
1	227	27.697453420071	0.387955871156
1	239	29.336210037082	0.43680422882
1	242	29.84983179891	0.754135773479
1	257	32.548867452736	0.335958881706
1	262	33.062489214564	0.461038056539
1	277	35.405477301445	0.059678047156
1	297	40.597585043054	0.479016537015
1	302	41.111206804882	0.161756369628
1	326	44.448121726711	0.303946283285
1	329	44.961743488539	0.575009304524
1	334	45.475365250367	1.077958254454
1	336	45.475365250367	0.448668770252
1	344	45.988987012195	0.363757245332
1	347	46.502608774023	0.80659385397
1	350	47.016230535851	1.257151300186
1	376	50.864966951238	0.427324375644
1	383	51.378588713066	0.927663088851
1	385	51.378588713066	0.342239661902
1	389	51.892210474894	0.807299766062
1	392	52.405832236722	0.55520015728
1	397	52.91945399855	0.453663321764
1	402	53.433075760378	0.23115156595
1	412	55.061886318064	0.388167091229
1	422	56.839665351852	0.50447118257
1	429	57.35328711368	0.482695936515
1	432	57.866908875508	0.629138062487
1	452	62.317380894291	0.453006559276
1	487	70.053528786792	0.052521390855
1	501	71.602752337549	0.195768856932
1	504	72.116374099377	0.649240557029
1	509	72.629995861205	1.04355675673
1	511	72.629995861205	0.418589044931
1	517	73.143617623033	0.199023742789
1	520	73.657239384861	0.685480897268
1	535	76.13355190781	0.070090354819
1	540	76.647173669638	0.083133997819
1	545	77.160795431466	0.30547843463
1	550	77.674417193294	0.176243834424
1	555	78.188038955122	0.403164177134
1	570	81.366805115698	0.369478653445
1	610	89.127717353215	0.443602926218
1	615	89.641339115043	0.27100609788
1	625	91.5393844802	0.331649573582
1	630	92.053006242028	0.048485353688
1	635	92.566628003856	0.505164526765
1	665	101.185412848176	0.299651082333
1	672	101.699034610004	0.18330497123
1	679	102.212656371832	0.655120035607
1	684	102.72627813366	0.934148124853
1	686	102.72627813366	0.600213083991
1	690	103.239899895488	0.826533692359
1	693	103.753521657316	0.63818173929
1	707	104.881479604973	0.26572228289
1	712	105.395101366801	0.675519084486
1	715	105.908723128629	1.04746538613
1	717	105.908723128629	1.012215466153
1	735	109.602456974376	0.247454422967
1	742	110.116078736204	0.287264485824
1	745	110.629700498032	0.766473494818
1	771	115.515601624868	0.507113399162
1	774	116.029223386696	0.957559558096
1	776	116.029223386696	0.622865829397
1	778	116.542845148524	1.092346249695
1	801	120.191311958852	0.486488067822
1	806	120.70493372068	0.500233604052
1	811	121.218555482508	0.163064679803
1	821	123.019630537074	0.317412970448
1	846	128.22421208135	0.034539988563
1	866	132.735720687892	0.414649786823
1	873	133.24934244972	0.43540966529
1	880	133.762964211548	0.562875611495
1	883	134.276585973376	0.950412593369
1	885	134.276585973376	0.517553364048
1	889	134.790207735204	0.220257915881
1	898	135.303829497032	0.424292609934
1	907	135.81745125886	0.654170999098
1	910	136.331073020688	1.107597984398
1	912	136.331073020688	0.938595693506
1	913	136.331073020688	0.931415598918
1	914	136.331073020688	0.643217462681
1	928	139.008417129376	0.24453911912
1	938	140.106050484873	0.326291398932
1	945	140.619672246701	0.370488927387
1	948	141.133294008529	0.848423916967
1	955	141.646915770357	0.358996593423
1	958	142.160537532185	0.752163074856
1	968	143.252766565538	0.430848955871
1	973	143.766388327366	0.196706382333
1	983	144.994561610855	0.114369256273
1	988	145.508183372683	0.468204742729
1	993	146.021805134511	0.360229917856
1	998	146.535426896339	0.513213612255
1	1003	147.049048658167	0.444848472914
1	1028	152.201845038754	0.078475819046
1	1045	155.459367766863	0.415802476492
1	1048	155.972989528691	0.700037552629
1	1070	159.588846794473	0.126114364109
1	1077	160.102468556301	0.632678334963
1	1082	160.616090318129	1.003045474184
1	1084	160.616090318129	0.613740450273
1	1086	161.129712079957	0.740843746478
1	1096	162.600844899896	0.510521226723
1	1105	163.249006050124	0.595827358716
1	1107	163.762627811952	0.791943341847
1	1122	165.563714167339	0.166353706492
1	1127	166.077335929167	0.308167744607
1	1137	167.324874608988	0.485798774747
1	1152	169.521730807747	0.431826088789
1	1174	173.940171969648	0.441713873506
1	1183	174.453793731476	0.596533104778
1	1186	174.967415493304	0.948461826454
1	1188	174.967415493304	0.517953657963
1	1190	175.481037255132	1.028842055714
1	1203	176.986588623034	0.019581867559
1	1208	177.500210384862	0.393046121096
1	1223	179.378194023807	0.287871411224
1	1228	179.891815785635	0.283105552051
1	1235	180.405437547463	0.262602125964
1	1242	180.919059309291	0.76499220005
1	1249	181.432681071119	0.965772563026
1	1251	181.432681071119	0.572995595297
1	1253	181.946302832947	0.934527371484
1	1255	181.946302832947	0.892857343459
1	1282	188.866336454982	0.373586061405
1	1289	189.37995821681	0.484787046652
1	1294	189.893579978638	0.755812083923
1	1297	190.407201740466	0.765838008877
1	1304	190.920823502294	0.215261114959
1	1307	191.434445264122	0.698864026822
1	1352	201.245521673163	0.444339128365
1	1357	201.759143434991	0.40792320093
1	1369	202.818320752497	0.321942062971
1	1374	203.331942514325	0.796434265566
1	1377	203.845564276153	0.664459867523
1	1384	204.359186037981	0.399000130437
1	1387	204.872807799809	0.518615684226
1	1392	205.386429561637	0.113584391804
1	1402	206.883917049581	0.109249787127
1	1409	207.397538811409	0.378439627381
1	1412	207.911160573237	0.828457497649
1	1423	208.424782335065	0.420633794378
1	1426	208.938404096893	0.769961607572
1	1429	209.452025858721	1.184260604358
1	1431	209.452025858721	1.094326507027
1	1440	210.140403532417	0.509162080911
1	1443	210.654025294245	0.733946791831
1	1448	211.167647056073	0.426048852854
1	1455	211.681268817901	0.281143250283
1	1460	212.194890579729	0.58167783928
1	1467	212.708512341557	0.906645301024
1	1469	212.708512341557	0.212716045059
1	1473	213.222134103385	0.61869164878
1	1480	213.870295253613	0.718622043425
1	1482	214.383917015441	1.140344824693
1	1490	215.587816755293	0.435201241609
1	1502	217.845646161177	0.447145500949
1	1511	218.359267923005	0.862014657545
1	1516	218.872889684833	0.914372941273
1	1518	218.872889684833	0.804676282798
1	1520	219.386511446661	1.034775597294
1	1522	219.386511446661	0.971365109461
1	1529	220.015589168827	0.384356604175
1	1534	220.529210930655	0.4956622623
1	1543	221.042832692483	0.394982487232
1	1546	221.556454454311	0.817805954224
1	1549	222.070076216139	1.12397164876
1	1564	223.279901118889	0.495535413637
1	1569	223.793522880717	0.975431695235
1	1571	223.793522880717	0.216126550992
1	1577	224.307144642545	0.513211823484
1	1582	224.820766404373	0.716258007562
1	1591	225.334388166201	0.771395066159
1	1594	225.848009928029	0.754274747936
1	1597	226.361631689857	1.184451615679
1	1599	226.361631689857	1.183789681042
1	1608	228.622132347193	0.331473491708
1	1611	229.135754109021	0.839774490157
1	1625	230.38983962085	0.455025777604
1	1628	230.903461382678	0.708890574788
1	1631	231.417083144506	1.159834926964
1	1648	232.817443954064	0.502428731334
1	1653	233.331065715892	0.983822151436
1	1655	233.331065715892	0.549393737558
1	1661	233.84468747772	0.639784672392
1	1664	234.358309239548	0.961695599161
1	1666	234.358309239548	0.758126354564
1	1670	234.871931001376	0.141111012848
1	1675	235.385552763204	0.135750301701
1	1700	243.391915203961	0.199319637547
1	1715	245.629921434872	0.21760818035
1	1725	246.76376691419	0.116180234144
1	1730	247.277388676018	0.173283701862
1	1735	247.791010437846	0.152366176068
1	1742	248.304632199674	0.461815704053
1	1751	248.818253961502	0.770888542995
1	1756	249.33187572333	0.966757787864
1	1758	249.33187572333	0.920723337588
1	1759	249.33187572333	0.748077241919
1	1763	249.845497485158	0.542723072583
1	1770	250.359119246986	0.948588287777
1	1772	250.359119246986	0.379794145843
1	1774	250.872741008814	0.853075117857
1	1779	251.386362770642	0.074109523758
1	1789	252.608608612155	0.068714856892
1	1794	253.122230373983	0.137373146806
1	1799	253.635852135811	0.281088514021
1	1811	255.04624151636	0.444762860403
1	1818	255.559863278188	0.858450749695
1	1823	256.073485040016	0.999759221444
1	1825	256.073485040016	0.613227320062
1	1827	256.587106801844	0.630138357026
1	1837	257.822622241079	0.057153106457
1	1846	258.336244002907	0.467002882017
1	1849	258.849865764735	0.783203887439
1	1852	259.363487526563	1.047725148571
1	1860	259.989874355011	0.182481353499
1	1865	260.503496116839	0.498669495208
1	1877	262.603724148727	0.137982826858
1	1896	266.919455693837	0.354933426227
1	1901	267.433077455665	0.468707727627
1	1908	267.946699217493	0.239642327411
1	1913	268.460320979321	0.630610780563
1	1916	268.973942741149	0.77056060907
1	1928	271.156962895265	0.261804842264
1	1935	271.670584657093	0.531052152111
1	1942	272.184206418921	0.602560699756
1	1945	272.697828180749	1.094652797926
1	1947	272.697828180749	0.915712736204
1	1948	272.697828180749	0.573912924122
1	1952	273.211449942577	0.190892492506
1	1959	273.725071704405	0.41990395557
1	1966	274.238693466233	0.660030604439
1	1971	274.752315228061	0.830409136377
1	1978	275.265936989889	1.130818905269
1	1980	275.265936989889	0.580353052438
1	1984	275.779558751717	1.026030845748
1	1986	275.779558751717	0.955209032994
1	1987	275.779558751717	0.030144218311
1	1996	277.313345455573	0.241564284389
1	2003	277.826967217401	0.055582954714
1	2006	278.340588979229	0.553228934916
1	2023	283.73626757166	0.37007251285
1	2028	284.249889333488	0.730991798006
1	2033	284.763511095316	0.725549774625
1	2036	285.277132857144	0.68161417564
1	2041	285.790754618972	0.052436593222
1	2046	286.3043763808	0.398723540315
1	2051	286.817998142628	0.080452113192
1	2058	287.331619904456	0.180131233348
1	2065	287.845241666284	0.692220131208
1	2070	288.358863428112	0.945396767192
1	2072	288.358863428112	0.846033148365
1	2074	288.87248518994	0.653479270443
1	2101	297.585035772707	0.345934362856
1	2106	298.098657534535	0.590856592656
1	2109	298.612279296363	1.005550201176
1	2131	303.205097235965	0.456025052357
1	2134	303.718718997793	0.623454026675
1	2137	304.232340759621	1.032720995618
1	2145	305.429316164199	0.118642114927
1	2152	305.942937926027	0.317309953849
1	2157	306.456559687855	0.716555963523
1	2160	306.970181449683	0.937871041798
1	2183	315.661535578618	0.015157173213
1	2193	318.149609524205	0.09040822407
1	2212	320.166888222102	0.27786078429
1	2217	320.68050998393	0.631369076123
1	2220	321.194131745758	1.03492192151
1	2222	321.194131745758	0.786209258588
1	2228	321.707753507586	0.030832060581
1	2231	322.221375269414	0.531011031595
1	2236	322.734997031242	0.091901447609
1	2262	328.860496617293	0.370835198861
1	2272	329.967127895991	0.416872915835
1	2299	334.049796466307	0.318490295099
1	2302	334.563418228135	0.530628591777
1	2312	335.656385414063	0.217329572559
1	2317	336.170007175891	0.352437548385
1	2327	338.429384909968	0.32216409958
1	2337	340.915091483646	0.121898298809
1	2342	341.428713245474	0.291948640656
1	2347	341.942335007302	0.38966585147
1	2362	344.584554233829	0.448575363589
1	2372	345.824121340269	0.058102923591
1	2384	348.20513840011	0.41477725045
1	2389	348.718760161938	0.662574517607
1	2392	349.232381923766	0.912404560866
1	2402	350.225348986778	0.304582210336
1	2405	350.738970748606	0.630398477984
1	2415	352.281176675203	0.137230275707
1	2427	355.566190782854	0.427188282507
1	2432	356.079812544682	0.635696551976
1	2437	356.59343430651	1.00805947494
1	2439	356.59343430651	0.302296730417
1	2460	360.411083006839	0.229100271358
1	2463	360.924704768667	0.659912530058
1	2478	363.249687682159	0.395763629523
1	2488	364.577219370427	0.318085751728
1	2503	368.830395829066	0.126383596572
1	2513	369.91524970515	0.027443724794
1	2520	370.428871466978	0.464591293059
1	2523	370.942493228806	0.911134103498
1	2556	383.582646735352	0.291511042194
1	2561	384.09626849718	0.18530833524
1	2566	384.609890259008	0.197762641856
1	2573	385.123512020836	0.312502761171
1	2578	385.637133782664	0.821730088723
1	2581	386.150755544492	0.665483735573
1	2596	389.214247697497	0.151288820185
1	2603	389.727869459325	0.453328746068
1	2610	390.241491221153	0.546236020898
1	2613	390.755112982981	0.686107388248
1	2618	391.403274133209	1.280788891954
1	2629	393.396794444965	0.472861974139
1	2634	393.910416206793	0.64016310141
1	2637	394.424037968621	1.105351042109
1	2639	394.424037968621	0.855193274239
1	2658	397.695271475822	0.247243734244
1	2668	398.926745375086	0.253236464944
1	2683	402.344314551058	0.321266320972
1	2695	404.65514295581	0.183751970319
1	2700	405.168764717638	0.522153840337
1	2703	405.682386479466	0.528411585412
1	2723	409.917468415771	0.197316807473
1	2738	411.858160239681	0.367974455025
1	2748	413.249414062434	0.127864631194
1	2753	413.763035824262	0.281629044155
1	2760	414.27665758609	0.447563181401
1	2763	414.790279347918	0.775204287918
1	2775	416.033483801485	0.4706761925
1	2778	416.547105563313	0.901607173996
1	2801	421.387928838953	0.371333021777
1	2813	422.657025104027	0.494367995845
1	2816	423.170646865855	0.931218173517
1	2834	427.439389192962	0.454530978502
1	2839	427.95301095479	0.154417891147
1	2853	430.021409146807	0.27880799469
1	2860	430.535030908635	0.694595646092
1	2865	431.048652670463	1.081876454832
1	2867	431.048652670463	0.92475495705
1	2868	431.048652670463	0.548928377877
1	2870	431.562274432291	0.560703103153
1	2877	432.075896194119	0.501800154203
1	2880	432.589517955947	1.010673722893
1	2888	433.77393521891	0.143949367249
1	2899	434.287556980738	0.320745299856
1	2902	434.801178742566	0.820136153509
1	2909	435.314800504394	1.162129640745
1	2911	435.314800504394	1.103592817236
1	2912	435.314800504394	0.463969089023
1	2916	435.828422266222	0.819447662883
1	2919	436.34204402805	0.91720826775
1	2932	439.078336235133	0.350851865853
1	2944	440.595835627575	0.505524601801
1	2947	441.109457389403	0.797858571956
1	2952	441.623079151231	0.202433901608
1	2974	445.689334594281	0.354363572007
1	2979	446.202956356109	0.671329503724
1	2988	446.716578117937	0.804110377659
1	2991	447.230199879765	0.938642940315
1	2993	447.230199879765	0.907873871159
1	2994	447.230199879765	0.719889776088
1	2998	447.743821641593	0.268055958977
1	3005	448.391982791821	0.333192302491
1	3009	448.905604553649	0.484016186643
1	3019	450.69962205862	0.215689645611
1	3026	451.213243820448	0.176135930446
1	3029	451.726865582276	0.528926296522
1	3060	456.216249486037	0.237749141303
1	3063	456.729871247865	0.726400015391
1	3066	457.243493009693	1.177892327988
1	3068	457.243493009693	1.046289468902
1	3075	457.904321289328	0.144065489384
1	3090	461.702080190526	0.029650869117
1	3095	462.215701952354	0.146264946052
1	3102	462.729323714182	0.436080280408
1	3111	463.24294547601	0.770542284732
1	3114	463.756567237838	0.942889060499
1	3116	463.756567237838	0.932202308541
1	3117	463.756567237838	0.697647616171
1	3136	468.545343601672	0.331392849785
1	3151	472.761120445424	0.290503125324
1	3168	475.418314744884	0.350498496931
1	3171	475.931936506712	0.829685670138
1	3176	476.44555826854	0.196104843554
1	3181	476.959180030368	0.157533280958
1	3186	477.472801792196	0.016586798745
1	3193	477.986423554024	0.313474359007
1	3198	478.500045315852	0.826824595022
1	3201	479.01366707768	0.639581399538
1	3208	479.527288839508	0.28165083482
1	3213	480.040910601336	0.539556825105
1	3224	480.554532363164	0.732375122883
1	3227	481.068154124992	0.992602938978
1	3229	481.068154124992	0.776263313098
1	3231	481.58177588682	1.153048128035
1	3233	481.58177588682	1.047844888456
1	3242	482.412242226674	0.076361788769
1	3245	482.925863988502	0.516750674392
1	3255	484.017312221821	0.433270857428
1	3267	485.074728991278	0.494045530169
1	3270	485.588350753106	0.715236500331
1	3275	486.101972514934	0.387608039417
1	3284	486.615594276762	0.398759607592
1	3293	487.12921603859	0.843833958226
1	3296	487.642837800418	1.049138387342
1	3298	487.642837800418	0.968692743661
1	3299	487.642837800418	0.690853262338
1	3301	488.156459562246	1.068479647339
1	3309	488.906726062008	0.074821204511
1	3316	489.420347823836	0.222144602241
1	3319	489.933969585664	0.632621415338
1	3334	491.828676313789	0.384234965921
1	3339	492.342298075617	0.406114397596
1	3344	492.855919837445	0.041151950956
1	3358	494.367771638405	0.40764515819
1	3361	494.881393400233	0.876490136284
1	3364	495.395015162061	1.214139536826
1	3382	499.107312985013	0.38407571777
1	3393	499.755474135241	0.566675318054
1	3395	500.269095897069	0.893557415672
1	3397	500.269095897069	0.792238872901
1	3401	500.782717658897	0.153577514792
1	3406	501.296339420725	0.353108416329
1	3418	502.488210832649	0.267891244847
1	3421	503.001832594477	0.520265731904
1	3455	514.277823652652	0.354232881664
1	3458	514.79144541448	0.72661626352
1	3461	515.305067176308	1.23188354384
1	3469	516.375255413472	0.43589346615
1	3474	516.8888771753	0.416839280065
1	3484	518.221358676484	0.438493343126
1	3494	519.962672447172	0.170135470275
1	3506	523.3353863077	0.338814803962
1	3511	523.849008069528	0.751379626513
1	3516	524.362629831356	0.981518501219
1	3518	524.362629831356	0.220044380139
1	3522	524.876251593184	0.181849729326
1	3527	525.389873355012	0.081627025004
1	3546	528.125195616734	0.469264413624
1	3549	528.638817378562	0.952341258888
1	3551	528.638817378562	0.533199116434
1	3557	529.15243914039	0.512390113006
1	3560	529.666060902218	0.947778020475
1	3568	530.701029186398	0.498893422098
1	3575	531.214650948226	0.151323424885
1	3578	531.728272710054	0.623927443355
1	3587	532.241894471882	0.121656478806
1	3592	532.75551623371	0.580496120358
1	3599	533.269137995538	1.032114286862
1	3601	533.269137995538	0.641052355864
1	3603	533.782759757366	0.803031678712
1	3606	534.296381519194	1.089218570942
1	3621	536.266681916667	0.113978734666
1	3626	536.780303678495	0.601564641807
1	3629	537.293925440323	0.951801352238
1	3637	538.026581771725	0.201606598685
1	3647	540.89957380363	0.258058453657
1	3657	542.634107847894	0.08992459412
1	3662	543.147729609722	0.39825210332
1	3671	543.66135137155	0.498864537919
1	3676	544.174973133378	0.796600172604
1	3679	544.688594895206	1.1496054989
1	3681	544.688594895206	0.6886214398
1	3685	545.202216657034	0.400901711328
1	3692	545.715838418862	0.402602025856
1	3695	546.22946018069	0.557457848794
1	3714	549.72081486356	0.110888725767
1	3719	550.234436625388	0.532868874126
1	3722	550.748058387216	1.033253824092
1	3724	550.748058387216	0.880968463627
1	3730	551.261680149044	0.183404475654
1	3735	551.775301910872	0.659728595648
1	3740	552.2889236727	0.583157204878
1	3743	552.802545434528	0.848618461292
1	3748	553.316167196356	0.12930968562
1	3763	556.795820651835	0.097113773543
1	3779	560.58814101568	0.03186617831
1	3788	561.101762777508	0.345283744197
1	3791	561.615384539336	0.812566802706
1	3794	562.129006301164	1.03067616018
1	3812	566.881253576116	0.076480766067
1	3824	568.424879235909	0.423998546805
1	3827	568.938500997737	0.614376787821
1	3832	569.452122759565	0.073143923853
1	3839	569.965744521393	0.317888812325
1	3842	570.479366283221	0.81919785445
1	3851	570.992988045049	0.44065203284
1	3856	571.506609806877	0.596532572376
1	3861	572.020231568705	1.091439008715
1	3863	572.020231568705	0.54353371434
1	3865	572.533853330533	0.852080547542
1	3870	573.047475092361	0.024312752785
1	3880	574.94059541022	0.480506550062
1	3885	575.454217172048	0.127375135881
1	3890	575.967838933876	0.428967589945
1	3930	584.191265209942	0.171290370648
1	3935	584.70488697177	0.087003993952
1	3954	587.512684930608	0.445010633202
1	3961	588.026306692436	0.705798870799
1	3964	588.539928454264	1.130521452017
1	3966	588.539928454264	0.995312686734
1	3967	588.539928454264	0.79296948285
1	3978	590.550092702661	0.247042577291
1	3983	591.063714464489	0.712292268048
1	3988	591.577336226317	0.610407037766
1	3991	592.090957988145	0.977882375763
1	3999	592.798408984961	0.145669383668
1	4011	594.001101248463	0.430208384533
1	4016	594.514723010291	0.690174122189
1	4019	595.028344772119	0.753550807578
1	4031	596.444803341095	0.439923030266
1	4036	596.958425102923	0.744333820172
1	4039	597.472046864751	0.759724504529
1	4054	600.99924488785	0.144833245033
1	4074	605.638813553508	0.281876964338
1	4081	606.152435315336	0.156399347911
1	4084	606.666057077164	0.613149049384
1	4089	607.179678838992	0.033177646016
1	4099	608.500199387047	0.386892517436
1	4109	613.312330642618	0.291552098458
1	4114	613.825952404446	0.449433444437
1	4119	614.339574166274	0.376010764483
1	4124	614.853195928102	0.008566689487
1	4131	615.36681768993	0.380506348419
1	4136	616.014978840158	0.778221789493
1	4140	616.528600601986	0.112863678223
1	4145	617.042222363814	0.168493878481
1	4155	619.066887532693	0.347390999678
1	4165	621.037881693135	0.292398586734
1	4172	621.551503454963	0.491446654405
1	4177	622.065125216791	0.559542936075
1	4182	622.578746978619	0.734445077803
1	4185	623.092368740447	1.004053912056
1	4195	624.125815088303	0.125226886418
1	4198	624.639436850131	0.522065887133
1	4218	627.700649635743	0.177270040601
1	4223	628.214271397571	0.448966075023
1	4228	628.727893159399	0.113276143798
1	4243	633.332287092337	0.367924324159
1	4257	634.874202183385	0.486105700231
1	4262	635.387823945213	0.679096201792
1	4265	635.901445707041	1.056829500796
1	4267	635.901445707041	0.865342994707
1	4286	638.62769229113	0.045151304121
1	4293	639.141314052958	0.398444332035
1	4296	639.654935814786	0.568911654942
1	4301	640.168557576614	0.184152041643
1	4306	640.682179338442	0.204269679071
1	4313	641.19580110027	0.454918598702
1	4318	641.709422862098	0.892318668184
1	4320	641.709422862098	0.385455425176
1	4324	642.223044623926	0.505511741309
1	4354	653.09661152791	0.286619575938
1	4369	655.633916154933	0.477864887249
1	4379	656.884121102325	0.165759162045
1	4384	657.397742864153	0.001466677783
1	4396	659.080907489465	0.433689774448
1	4399	659.594529251293	0.537485334463
1	4404	660.108151013121	0.194582193557
1	4409	660.621772774949	0.173582792266
1	4424	664.044773980436	0.354591842191
1	4434	665.796008634529	0.21674849332
1	4444	667.00685419915	0.424706840509
1	4454	668.37399134742	0.440558465756
1	4459	668.887613109248	0.308627743036
1	4474	670.832383727135	0.374307370954
1	4491	673.434907585822	0.404054613322
1	4496	674.08306873605	0.698340508943
1	4505	676.636828910984	0.394417474392
1	4520	680.117240817785	0.462705352365
1	4525	680.630862579613	0.177738519189
1	4542	684.067914418374	0.192757699787
1	4547	684.581536180202	0.514312797566
1	4552	685.09515794203	0.804610662452
1	4559	685.608779703858	0.869690147461
1	4564	686.122401465686	0.801797001132
1	4567	686.636023227514	1.180600997106
1	4569	686.636023227514	0.686295557457
1	4573	687.149644989342	0.016585494222
1	4580	687.66326675117	0.203363933782
1	4583	688.176888512998	0.678720599356
1	4598	692.245831428033	0.17188452906
1	4605	692.759453189861	0.40511538161
1	4612	693.273074951689	0.746027860475
1	4617	693.786696713517	0.7806109169
1	4624	694.300318475345	1.154031427274
1	4626	694.300318475345	0.857199860623
1	4628	694.813940237173	0.675618663679
1	4633	695.327561999001	1.085941539482
1	4635	695.327561999001	0.202329904867
1	4644	698.723593908361	0.243344849493
1	4651	699.237215670189	0.205367896434
1	4656	699.750837432017	0.572484851763
1	4659	700.264459193845	0.969476914784
1	4681	702.671761937994	0.483003695848
1	4684	703.185383699822	0.913997356248
1	4686	703.185383699822	0.72594050348
1	4690	703.69900546165	0.352800453549
1	4695	704.212627223478	0.353425793557
1	4700	704.726248985306	0.449805488868
1	4707	705.239870747134	0.500775277217
1	4710	705.753492508962	0.903865422336
1	4718	706.545850817456	0.012147817839
1	4738	712.50387507994	0.053976445175
1	4745	713.017496841768	0.500137664249
1	4750	713.531118603596	0.56263711489
1	4759	714.044740365424	0.559582389087
1	4764	714.558362127252	1.020819946308
1	4766	714.558362127252	0.673022807779
1	4770	715.07198388908	1.148497334222
1	4772	715.07198388908	0.694472492554
1	4774	715.585605650908	0.546002590672
1	4784	717.606000627159	0.158247790409
1	4808	724.472321425619	0.434604395167
1	4811	724.985943187447	0.769613399918
1	4818	725.499564949275	1.174360398866
1	4820	725.499564949275	0.384544496045
1	4822	726.013186711103	0.677090330701
1	4837	729.337315109068	0.219901388994
1	4849	730.812839802388	0.343587371004
1	4856	731.326461564216	0.758325476776
1	4859	731.840083326044	0.892965361665
1	4861	731.840083326044	0.701906955685
1	4865	732.353705087872	0.201274834054
1	4881	735.319413861905	0.445370177796
1	4885	735.833035623733	0.842821854669
1	4888	736.346657385561	1.032859882559
1	4890	736.346657385561	1.017681979349
1	4897	737.642574036204	0.076131770375
1	4907	738.800068521238	0.199775400058
1	4924	743.787471390439	0.386082679973
1	4929	744.301093152267	0.714614031638
1	4934	744.814714914095	0.883753810193
1	4937	745.328336675923	0.841079401183
1	4942	745.841958437751	0.101877503502
1	4952	747.453831557796	0.199580260919
1	4957	747.967453319624	0.490380777113
1	4967	750.308225259501	0.383445445118
1	5004	758.693057185249	0.179558119292
1	5007	759.206678947077	0.561931740814
1	5012	759.720300708905	0.436078544875
1	5022	761.363233940656	0.047299362238
1	5031	761.876855702484	0.428102933943
1	5036	762.390477464312	0.698535627944
1	5041	762.90409922614	1.202972452419
1	5043	762.90409922614	0.933525848351
1	5044	762.90409922614	0.478456224057
1	5058	765.607955079397	0.379911337369
1	5090	771.91152836572	0.494762784529
1	5093	772.425150127548	0.641431253485
1	5102	772.938771889376	0.477733956833
1	5105	773.452393651204	0.975049320399
1	5107	773.452393651204	0.603901369597
1	5111	773.966015413032	0.216532250673
1	5118	774.47963717486	0.328988018085
1	5123	774.993258936688	0.79581083452
1	5126	775.506880698516	0.854884368078
1	5136	776.841531337455	0.433838966162
1	5141	777.355153099283	0.295399993815
1	5150	777.868774861111	0.333734416937
1	5153	778.382396622939	0.845203243197
1	5158	778.896018384767	1.261558339672
1	5160	778.896018384767	0.369950036575
1	5166	779.409640146595	0.426062083325
1	5171	779.923261908423	0.647667369378
1	5174	780.436883670251	0.627311662657
1	5199	786.130670839934	0.125136866475
1	5204	786.644292601762	0.483272872196
1	5209	787.15791436359	0.128216230179
1	5224	789.933587623363	0.224333890246
1	5234	791.838863028366	0.100701930331
1	5246	793.544709880524	0.196446075853
1	5252	794.058331642352	0.340692383718
1	5259	794.57195340418	0.590617671913
1	5264	795.085575166008	0.742995394971
1	5271	795.599196927836	1.160127987996
1	5273	795.599196927836	0.969126812862
1	5274	795.599196927836	0.40121075759
1	5280	796.112818689664	0.702702918168
1	5285	796.626440451492	0.621066526289
1	5292	797.14006221332	1.082820619425
1	5294	797.14006221332	0.95167085861
1	5295	797.14006221332	0.284127950362
1	5297	797.653683975148	0.570061190064
1	5312	799.625889558845	0.299590605467
1	5327	801.236859004546	0.316066345048
1	5342	806.01374533125	0.188308575589
1	5357	811.95466406324	0.397570832708
1	5372	815.232298428247	0.130220213936
1	5382	816.605029746495	0.243494464919
1	5392	818.114930758715	0.50700916266
1	5402	820.302314426239	0.217064576748
1	5412	822.508207536251	0.472356809939
1	5419	823.021829298079	0.232467540944
1	5422	823.535451059907	0.728589274239
1	5427	824.049072821735	0.232243875352
1	5459	829.264337305428	0.339368286805
1	5462	829.777959067256	0.63119476761
1	5472	833.389515367448	0.370578688729
1	5479	833.903137129276	0.259998160898
1	5484	834.416758891104	0.599198900615
1	5489	834.930380652932	0.917554228088
1	5491	834.930380652932	0.27912903621
1	5497	835.44400241476	0.433265860927
1	5500	835.957624176588	0.862472884049
1	5505	836.471245938416	0.510581363815
1	5512	836.984867700244	0.425033760183
1	5517	837.498489462072	0.529034558664
1	5520	838.0121112239	0.653063419488
1	5535	842.570741090298	0.35855799198
1	5544	843.084362852126	0.304423072259
1	5549	843.597984613954	0.755428179168
1	5552	844.111606375782	1.161257172848
1	5554	844.111606375782	0.689942825208
1	5558	844.62522813761	0.479743893814
1	5563	845.138849899438	0.371064768273
1	5573	846.370520548506	0.048462021274
1	5583	849.334433286933	0.169945446528
1	5590	849.848055048761	0.305224163101
1	5595	850.361676810589	0.695727143474
1	5598	850.875298572417	0.600623777573
1	5607	851.388920334245	0.362688673912
1	5612	851.902542096073	0.839008309952
1	5621	852.550703246301	1.472112372723
1	5622	852.550703246301	0.818722346431
1	5628	853.064325008129	1.025464487868
1	5630	853.064325008129	0.86802953327
1	5632	853.577946769957	0.818079396229
1	5635	854.091568531785	1.296010282593
1	5648	856.836376982069	0.319857533408
1	5688	870.855037178485	0.457091279185
1	5693	871.368658940313	0.405152800261
1	5705	872.429309779187	0.327548518881
1	5708	872.942931541015	0.650489575237
1	5718	875.406319926318	0.450084095075
1	5728	876.998648529953	0.207682001046
1	5738	879.16005252509	0.160676960015
1	5753	881.256812628798	0.116625572686
1	5758	881.770434390626	0.437000418238
1	5773	884.460252949367	0.191141712139
1	5780	884.973874711195	0.228509169319
1	5783	885.487496473023	0.694490973616
1	5793	886.975913973346	0.301548747315
1	5800	887.489535735174	0.322199740429
1	5803	888.003157497002	0.623757130525
1	5808	888.51677925883	0.418118572591
1	5813	889.030401020658	0.096602840029
1	5818	889.544022782486	0.39801594427
1	5828	890.580618153319	0.202650169252
1	5833	891.094239915147	0.069467471885
1	5838	891.607861676975	0.312595234925
1	5843	892.121483438803	0.493953836772
1	5863	895.489689803492	0.216211631811
1	5868	896.00331156532	0.166486176742
1	5885	898.342421139619	0.273533045637
1	5890	898.856042901447	0.529203983323
1	5897	899.369664663275	0.788480724746
1	5904	899.883286425103	0.683686011199
1	5909	900.396908186931	1.060502299311
1	5911	900.396908186931	0.978662975789
1	5912	900.396908186931	0.767071316902
1	5916	900.910529948759	0.658293861495
1	5919	901.424151710587	0.879530103796
1	5924	901.937773472415	0.345651968286
1	5929	902.451395234243	0.066285421645
1	5934	902.965016996071	0.47193730562
1	5939	903.478638757899	0.055556154847
1	5953	905.460523750085	0.205176991636
1	5958	905.974145511913	0.611734983614
1	5963	906.487767273741	1.085608726039
1	5965	906.487767273741	0.559265599091
1	5967	907.001389035569	0.692730458412
1	5974	907.515010797397	0.386839779522
1	5979	908.028632559225	0.765710076309
1	5988	908.676793709453	0.666219856933
1	5992	909.190415471281	1.092931838401
1	5994	909.190415471281	0.589525011629
1	5998	909.704037233109	0.808750482837
1	6001	910.217658994937	0.611134025179
1	6016	913.196926279427	0.495351897631
1	6031	915.533163263379	0.288359604123
1	6036	916.046785025207	0.314927706595
1	6041	916.560406787035	0.388209885623
1	6051	917.76511275049	0.181129991435
1	6056	918.278734512318	0.435126301425
1	6065	918.792356274146	0.465587066419
1	6070	919.305978035974	0.971214284554
1	6072	919.305978035974	0.690835950659
1	6074	919.819599797802	0.550348426294
1	6094	925.517511087476	0.036535783819
1	6114	930.788536284514	0.468767576976
1	6124	932.186871054208	0.189486370566
1	6149	938.997090768076	0.293190671835
1	6159	940.242848253832	0.256820972837
1	6173	941.324125808758	0.310298867082
1	6178	941.837747570586	0.648440852777
1	6183	942.351369332414	1.147392576585
1	6185	942.351369332414	0.849851387579
1	6189	942.864991094242	0.979916045913
1	6191	942.864991094242	0.204155825664
1	6199	943.37861285607	0.392113148961
1	6204	943.892234617898	0.767160813134
1	6211	944.405856379726	1.134510181636
1	6213	944.405856379726	0.63188051723
[...]
8	2504	368.830395829066	0
8	2507	369.344017590894	0
8	2514	369.91524970515	0
8	2521	370.428871466978	0
8	2524	370.942493228806	0
8	2530	377.802224994099	0
8	2535	379.249968203217	0
8	2540	379.957561729636	0
8	2545	380.531357306226	0
8	2550	383.052031827112	0
8	2557	383.582646735352	0
8	2562	384.09626849718	0
8	2567	384.609890259008	0
8	2574	385.123512020836	0
8	2579	385.637133782664	0
8	2582	386.150755544492	0
8	2585	386.66437730632	0
8	2590	388.175462235034	0
8	2597	389.214247697497	0
8	2604	389.727869459325	0
8	2611	390.241491221153	0
8	2614	390.755112982981	0
8	2617	391.268734744809	0
8	2630	393.396794444965	0
8	2635	393.910416206793	0
8	2638	394.424037968621	0
8	2642	394.937659730449	0
8	2647	395.745301648447	0
8	2652	396.970355238111	0
8	2659	397.695271475822	0
8	2662	398.20889323765	0
8	2669	398.926745375086	0
8	2672	399.440367136914	0
8	2677	400.408466725939	0
8	2684	402.344314551058	0
8	2687	402.857936312886	0
8	2696	404.65514295581	0
8	2701	405.168764717638	0
8	2704	405.682386479466	0
8	2707	406.196008241294	0
8	2712	407.214183639824	0
8	2717	409.366396881036	0
8	2724	409.917468415771	0
8	2727	410.431090177599	0
8	2732	411.027017963139	0
8	2739	411.858160239681	0
8	2742	412.371782001509	0
8	2749	413.249414062434	0
8	2754	413.763035824262	0
8	2761	414.27665758609	0
8	2764	414.790279347918	0
8	2767	415.303901109746	0
8	2776	416.033483801485	0
8	2779	416.547105563313	0
8	2785	417.094541387122	0
8	2790	418.101797557166	0
8	2795	418.724108612084	0
8	2802	421.387928838953	0
8	2805	421.901550600781	0
8	2814	422.657025104027	0
8	2817	423.170646865855	0
8	2823	423.729239767874	0
8	2828	424.897599150121	0
8	2835	427.439389192962	0
8	2840	427.95301095479	0
8	2843	428.466632716618	0
8	2854	430.021409146807	0
8	2861	430.535030908635	0
8	2866	431.048652670463	0
8	2871	431.562274432291	0
8	2878	432.075896194119	0
8	2881	432.589517955947	0
8	2889	433.77393521891	0
8	2900	434.287556980738	0
8	2903	434.801178742566	0
8	2910	435.314800504394	0
8	2917	435.828422266222	0
8	2920	436.34204402805	0
8	2926	437.002787907929	0
8	2933	439.078336235133	0
8	2936	439.591957996961	0
8	2945	440.595835627575	0
8	2948	441.109457389403	0
8	2953	441.623079151231	0
8	2956	442.136700913059	0
8	2961	443.193895181823	0
8	2966	444.031454285182	0
8	2975	445.689334594281	0
8	2980	446.202956356109	0
8	2989	446.716578117937	0
8	2992	447.230199879765	0
8	2999	447.743821641593	0
8	3004	448.257443403421	0
8	3010	448.905604553649	0
8	3013	449.419226315477	0
8	3020	450.69962205862	0
8	3027	451.213243820448	0
8	3030	451.726865582276	0
8	3033	452.240487344104	0
8	3038	453.51553522665	0
8	3043	454.039527810768	0
8	3048	455.196164605305	0
8	3061	456.216249486037	0
8	3064	456.729871247865	0
8	3067	457.243493009693	0
8	3076	457.904321289328	0
8	3079	458.417943051156	0
8	3084	459.851687855302	0
8	3091	461.702080190526	0
8	3096	462.215701952354	0
8	3103	462.729323714182	0
8	3112	463.24294547601	0
8	3115	463.756567237838	0
8	3120	464.270188999666	0
8	3125	464.94406620392	0
8	3130	467.891650955324	0
8	3137	468.545343601672	0
8	3140	469.0589653635	0
8	3145	470.06541724557	0
8	3152	472.761120445424	0
8	3155	473.274742207252	0
8	3160	473.818521384397	0
8	3169	475.418314744884	0
8	3172	475.931936506712	0
8	3177	476.44555826854	0
8	3182	476.959180030368	0
8	3187	477.472801792196	0
8	3194	477.986423554024	0
8	3199	478.500045315852	0
8	3202	479.01366707768	0
8	3209	479.527288839508	0
8	3214	480.040910601336	0
8	3225	480.554532363164	0
8	3228	481.068154124992	0
8	3232	481.58177588682	0
8	3243	482.412242226674	0
8	3246	482.925863988502	0
8	3249	483.43948575033	0
8	3256	484.017312221821	0
8	3259	484.530933983649	0
8	3268	485.074728991278	0
8	3271	485.588350753106	0
8	3276	486.101972514934	0
8	3285	486.615594276762	0
8	3294	487.12921603859	0
8	3297	487.642837800418	0
8	3302	488.156459562246	0
8	3310	488.906726062008	0
8	3317	489.420347823836	0
8	3320	489.933969585664	0
8	3323	490.447591347492	0
8	3328	491.117844921021	0
8	3335	491.828676313789	0
8	3340	492.342298075617	0
8	3345	492.855919837445	0
8	3348	493.369541599273	0
8	3359	494.367771638405	0
8	3362	494.881393400233	0
8	3365	495.395015162061	0
8	3371	496.012149316253	0
8	3376	498.008849375271	0
8	3383	499.107312985013	0
8	3392	499.620934746841	0
8	3396	500.269095897069	0
8	3402	500.782717658897	0
8	3407	501.296339420725	0
8	3410	501.809961182553	0
8	3419	502.488210832649	0
8	3422	503.001832594477	0
8	3425	503.515454356305	0
8	3430	504.099921678989	0
8	3435	505.878516438259	0
8	3440	507.604094741019	0
8	3445	513.692931038768	0
8	3456	514.277823652652	0
8	3459	514.79144541448	0
8	3462	515.305067176308	0
8	3470	516.375255413472	0
8	3475	516.8888771753	0
8	3478	517.402498937128	0
8	3485	518.221358676484	0
8	3488	518.734980438312	0
8	3495	519.962672447172	0
8	3498	520.476294209	0
8	3507	523.3353863077	0
8	3512	523.849008069528	0
8	3517	524.362629831356	0
8	3523	524.876251593184	0
8	3528	525.389873355012	0
8	3531	525.90349511684	0
8	3536	526.886422237537	0
8	3547	528.125195616734	0
8	3550	528.638817378562	0
8	3558	529.15243914039	0
8	3561	529.666060902218	0
8	3569	530.701029186398	0
8	3576	531.214650948226	0
8	3579	531.728272710054	0
8	3588	532.241894471882	0
8	3593	532.75551623371	0
8	3600	533.269137995538	0
8	3604	533.782759757366	0
8	3607	534.296381519194	0
8	3613	535.667147765039	0
8	3622	536.266681916667	0
8	3627	536.780303678495	0
8	3630	537.293925440323	0
8	3638	538.026581771725	0
8	3641	538.540203533553	0
8	3648	540.89957380363	0
8	3651	541.413195565458	0
8	3658	542.634107847894	0
8	3663	543.147729609722	0
8	3672	543.66135137155	0
8	3677	544.174973133378	0
8	3680	544.688594895206	0
8	3686	545.202216657034	0
8	3693	545.715838418862	0
8	3696	546.22946018069	0
8	3699	546.743081942518	0
8	3704	548.676950669353	0
8	3715	549.72081486356	0
8	3720	550.234436625388	0
8	3723	550.748058387216	0
8	3731	551.261680149044	0
8	3736	551.775301910872	0
8	3741	552.2889236727	0
8	3744	552.802545434528	0
8	3749	553.316167196356	0
8	3752	553.829788958184	0
8	3757	554.737542599827	0
8	3764	556.795820651835	0
8	3767	557.309442413663	0
8	3773	558.760581977564	0
8	3780	560.58814101568	0
8	3789	561.101762777508	0
8	3792	561.615384539336	0
8	3795	562.129006301164	0
8	3801	563.518290940778	0
8	3806	565.770255920858	0
8	3813	566.881253576116	0
8	3816	567.394875337944	0
8	3825	568.424879235909	0
8	3828	568.938500997737	0
8	3833	569.452122759565	0
8	3840	569.965744521393	0
8	3843	570.479366283221	0
8	3852	570.992988045049	0
8	3857	571.506609806877	0
8	3862	572.020231568705	0
8	3866	572.533853330533	0
8	3871	573.047475092361	0
8	3874	573.561096854189	0
8	3881	574.94059541022	0
8	3886	575.454217172048	0
8	3891	575.967838933876	0
8	3894	576.481460695704	0
8	3899	577.86233091625	0
8	3904	578.996375514526	0
8	3909	579.572054374742	0
8	3914	580.968654964196	0
8	3919	581.588097924878	0
8	3924	582.332095716329	0
8	3931	584.191265209942	0
8	3936	584.70488697177	0
8	3939	585.218508733598	0
8	3944	586.544732118969	0
8	3955	587.512684930608	0
8	3962	588.026306692436	0
8	3965	588.539928454264	0
8	3970	589.053550216092	0
8	3979	590.550092702661	0
8	3984	591.063714464489	0
8	3989	591.577336226317	0
8	3992	592.090957988145	0
8	4000	592.798408984961	0
8	4003	593.312030746789	0
8	4012	594.001101248463	0
8	4017	594.514723010291	0
8	4020	595.028344772119	0
8	4023	595.541966533947	0
8	4032	596.444803341095	0
8	4037	596.958425102923	0
8	4040	597.472046864751	0
8	4043	597.985668626579	0
8	4048	599.564455285823	0
8	4055	600.99924488785	0
8	4058	601.512866649678	0
8	4063	602.68997907888	0
8	4068	603.567687024004	0
8	4075	605.638813553508	0
8	4082	606.152435315336	0
8	4085	606.666057077164	0
8	4090	607.179678838992	0
8	4093	607.69330060082	0
8	4100	608.500199387047	0
8	4103	609.013821148875	0
8	4110	613.312330642618	0
8	4115	613.825952404446	0
8	4120	614.339574166274	0
8	4125	614.853195928102	0
8	4132	615.36681768993	0
8	4135	615.880439451758	0
8	4141	616.528600601986	0
8	4146	617.042222363814	0
8	4149	617.555844125642	0
8	4156	619.066887532693	0
8	4159	619.580509294521	0
8	4166	621.037881693135	0
8	4173	621.551503454963	0
8	4178	622.065125216791	0
8	4183	622.578746978619	0
8	4186	623.092368740447	0
8	4196	624.125815088303	0
8	4199	624.639436850131	0
8	4202	625.153058611959	0
8	4207	626.452453818494	0
8	4212	627.179779534813	0
8	4219	627.700649635743	0
8	4224	628.214271397571	0
8	4229	628.727893159399	0
8	4232	629.241514921227	0
8	4237	632.696252149612	0
8	4244	633.332287092337	0
8	4247	633.845908854165	0
8	4258	634.874202183385	0
8	4263	635.387823945213	0
8	4266	635.901445707041	0
8	4270	636.415067468869	0
8	4275	636.997944754387	0
8	4280	637.848826734016	0
8	4287	638.62769229113	0
8	4294	639.141314052958	0
8	4297	639.654935814786	0
8	4302	640.168557576614	0
8	4307	640.682179338442	0
8	4314	641.19580110027	0
8	4319	641.709422862098	0
8	4325	642.223044623926	0
8	4328	642.736666385754	0
8	4333	644.904360324612	0
8	4338	646.702409867886	0
8	4343	650.538864852354	0
8	4348	652.120127009113	0
8	4355	653.09661152791	0
8	4358	653.610233289738	0
8	4363	654.723295725968	0
8	4370	655.633916154933	0
8	4373	656.147537916761	0
8	4380	656.884121102325	0
8	4385	657.397742864153	0
8	4388	657.911364625981	0
8	4397	659.080907489465	0
8	4400	659.594529251293	0
8	4405	660.108151013121	0
8	4410	660.621772774949	0
8	4413	661.135394536777	0
8	4418	662.193479252025	0
8	4425	664.044773980436	0
8	4428	664.558395742264	0
8	4435	665.796008634529	0
8	4438	666.309630396357	0
8	4445	667.00685419915	0
8	4448	667.520475960978	0
8	4455	668.37399134742	0
8	4460	668.887613109248	0
8	4463	669.401234871076	0
8	4468	670.00453181094	0
8	4475	670.832383727135	0
8	4478	671.346005488963	0
8	4483	672.279933125973	0
8	4492	673.434907585822	0
8	4495	673.94852934765	0
8	4499	674.596690497878	0
8	4506	676.636828910984	0
8	4509	677.150450672812	0
8	4514	679.562054258829	0
8	4521	680.117240817785	0
8	4526	680.630862579613	0
8	4529	681.144484341441	0
8	4534	683.136443877718	0
8	4543	684.067914418374	0
8	4548	684.581536180202	0
8	4553	685.09515794203	0
8	4560	685.608779703858	0
8	4565	686.122401465686	0
8	4568	686.636023227514	0
8	4574	687.149644989342	0
8	4581	687.66326675117	0
8	4584	688.176888512998	0
8	4587	688.690510274826	0
8	4592	690.636696158061	0
8	4599	692.245831428033	0
8	4606	692.759453189861	0
8	4613	693.273074951689	0
8	4618	693.786696713517	0
8	4625	694.300318475345	0
8	4629	694.813940237173	0
8	4634	695.327561999001	0
8	4638	695.841183760829	0
8	4645	698.723593908361	0
8	4652	699.237215670189	0
8	4657	699.750837432017	0
8	4660	700.264459193845	0
8	4666	700.85389926825	0
8	4671	701.528069276564	0
8	4682	702.671761937994	0
8	4685	703.185383699822	0
8	4691	703.69900546165	0
8	4696	704.212627223478	0
8	4701	704.726248985306	0
8	4708	705.239870747134	0
8	4711	705.753492508962	0
8	4719	706.545850817456	0
8	4722	707.059472579284	0
8	4727	708.06645641831	0
8	4732	711.641406729536	0
8	4739	712.50387507994	0
8	4746	713.017496841768	0
8	4751	713.531118603596	0
8	4760	714.044740365424	0
8	4765	714.558362127252	0
8	4771	715.07198388908	0
8	4775	715.585605650908	0
8	4778	716.099227412736	0
8	4785	717.606000627159	0
8	4788	718.119622388987	0
8	4793	719.002541548564	0
8	4798	723.562457613166	0
8	4809	724.472321425619	0
8	4812	724.985943187447	0
8	4819	725.499564949275	0
8	4823	726.013186711103	0
8	4826	726.526808472931	0
8	4831	727.608265948909	0
8	4838	729.337315109068	0
8	4841	729.850936870896	0
8	4850	730.812839802388	0
8	4857	731.326461564216	0
8	4860	731.840083326044	0
8	4866	732.353705087872	0
8	4869	732.8673268497	0
8	4878	735.184874473505	0
8	4886	735.833035623733	0
8	4889	736.346657385561	0
8	4898	737.642574036204	0
8	4901	738.156195798032	0
8	4908	738.800068521238	0
8	4911	739.313690283066	0
8	4916	741.771734109404	0
8	4925	743.787471390439	0
8	4930	744.301093152267	0
8	4935	744.814714914095	0
8	4938	745.328336675923	0
8	4943	745.841958437751	0
8	4946	746.355580199579	0
8	4953	747.453831557796	0
8	4958	747.967453319624	0
8	4961	748.481075081452	0
8	4968	750.308225259501	0
8	4971	750.821847021329	0
8	4976	752.948682973383	0
8	4981	753.632336920254	0
8	4986	754.706259656159	0
8	4991	756.973011978935	0
8	4996	757.846748709598	0
8	5005	758.693057185249	0
8	5008	759.206678947077	0
8	5013	759.720300708905	0
8	5016	760.233922470733	0
8	5023	761.363233940656	0
8	5032	761.876855702484	0
8	5037	762.390477464312	0
8	5042	762.90409922614	0
8	5047	763.417720987968	0
8	5052	764.480849595464	0
8	5059	765.607955079397	0
8	5062	766.121576841225	0
8	5067	767.731929389854	0
8	5072	769.052688499498	0
8	5077	770.227906896851	0
8	5082	771.1038878766	0
8	5091	771.91152836572	0
8	5094	772.425150127548	0
8	5103	772.938771889376	0
8	5106	773.452393651204	0
8	5112	773.966015413032	0
8	5119	774.47963717486	0
8	5124	774.993258936688	0
8	5127	775.506880698516	0
8	5130	776.020502460344	0
8	5137	776.841531337455	0
8	5142	777.355153099283	0
8	5151	777.868774861111	0
8	5154	778.382396622939	0
8	5159	778.896018384767	0
8	5167	779.409640146595	0
8	5172	779.923261908423	0
8	5175	780.436883670251	0
8	5178	780.950505432079	0
8	5183	782.391220846769	0
8	5188	784.166092668147	0
8	5193	785.062188286441	0
8	5200	786.130670839934	0
8	5205	786.644292601762	0
8	5210	787.15791436359	0
8	5213	787.671536125418	0
8	5218	788.97539209578	0
8	5225	789.933587623363	0
8	5228	790.447209385191	0
8	5235	791.838863028366	0
8	5238	792.352484790194	0
8	5245	793.410170492124	0
8	5253	794.058331642352	0
8	5260	794.57195340418	0
8	5265	795.085575166008	0
8	5272	795.599196927836	0
8	5281	796.112818689664	0
8	5286	796.626440451492	0
8	5293	797.14006221332	0
8	5298	797.653683975148	0
8	5301	798.167305736976	0
8	5306	798.967741400573	0
8	5313	799.625889558845	0
8	5316	800.139511320673	0
8	5321	800.709102465847	0
8	5328	801.236859004546	0
8	5331	801.750480766374	0
8	5336	802.397759032165	0
8	5343	806.01374533125	0
8	5346	806.527367093078	0
8	5351	807.857465890372	0
8	5358	811.95466406324	0
8	5361	812.468285825068	0
8	5366	814.249754741077	0
8	5373	815.232298428247	0
8	5376	815.745920190075	0
8	5383	816.605029746495	0
8	5386	817.118651508323	0
8	5393	818.114930758715	0
8	5396	818.628552520543	0
8	5403	820.302314426239	0
8	5406	820.815936188067	0
8	5413	822.508207536251	0
8	5420	823.021829298079	0
8	5423	823.535451059907	0
8	5428	824.049072821735	0
8	5431	824.562694583563	0
8	5436	825.344302679992	0
8	5441	827.279085772826	0
8	5446	828.046742951361	0
8	5451	828.698482233812	0
8	5460	829.264337305428	0
8	5463	829.777959067256	0
8	5466	830.291580829084	0
8	5473	833.389515367448	0
8	5480	833.903137129276	0
8	5485	834.416758891104	0
8	5490	834.930380652932	0
8	5498	835.44400241476	0
8	5501	835.957624176588	0
8	5506	836.471245938416	0
8	5513	836.984867700244	0
8	5518	837.498489462072	0
8	5521	838.0121112239	0
8	5524	838.525732985728	0
8	5529	841.417775353974	0
8	5536	842.570741090298	0
8	5545	843.084362852126	0
8	5550	843.597984613954	0
8	5553	844.111606375782	0
8	5559	844.62522813761	0
8	5564	845.138849899438	0
8	5567	845.652471661266	0
8	5574	846.370520548506	0
8	5577	846.884142310334	0
8	5584	849.334433286933	0
8	5591	849.848055048761	0
8	5596	850.361676810589	0
8	5599	850.875298572417	0
8	5608	851.388920334245	0
8	5613	851.902542096073	0
8	5620	852.416163857901	0
8	5629	853.064325008129	0
8	5633	853.577946769957	0
8	5636	854.091568531785	0
8	5642	855.588065572971	0
8	5649	856.836376982069	0
8	5652	857.349998743897	0
8	5657	859.433646796165	0
8	5662	860.472929298909	0
8	5667	863.715579722173	0
8	5672	866.045363316084	0
8	5677	867.231369413442	0
8	5682	868.767995984034	0
8	5689	870.855037178485	0
8	5694	871.368658940313	0
8	5697	871.882280702141	0
8	5706	872.429309779187	0
8	5709	872.942931541015	0
8	5712	873.456553302843	0
8	5719	875.406319926318	0
8	5722	875.919941688146	0
8	5729	876.998648529953	0
8	5732	877.512270291781	0
8	5739	879.16005252509	0
8	5742	879.673674286918	0
8	5747	880.657938612278	0
8	5754	881.256812628798	0
8	5759	881.770434390626	0
8	5762	882.284056152454	0
8	5767	883.944484289276	0
8	5774	884.460252949367	0
8	5781	884.973874711195	0
8	5784	885.487496473023	0
8	5787	886.001118234851	0
8	5794	886.975913973346	0
8	5801	887.489535735174	0
8	5804	888.003157497002	0
8	5809	888.51677925883	0
8	5814	889.030401020658	0
8	5819	889.544022782486	0
8	5822	890.057644544314	0
8	5829	890.580618153319	0
8	5834	891.094239915147	0
8	5839	891.607861676975	0
8	5844	892.121483438803	0
8	5847	892.635105200631	0
8	5852	893.24272558238	0
8	5857	893.935950253676	0
8	5864	895.489689803492	0
8	5869	896.00331156532	0
8	5872	896.516933327148	0
8	5877	897.230981720278	0
8	5886	898.342421139619	0
8	5891	898.856042901447	0
8	5898	899.369664663275	0
8	5905	899.883286425103	0
8	5910	900.396908186931	0
8	5917	900.910529948759	0
8	5920	901.424151710587	0
8	5925	901.937773472415	0
8	5930	902.451395234243	0
8	5935	902.965016996071	0
8	5940	903.478638757899	0
8	5943	903.992260519727	0
8	5954	905.460523750085	0
8	5959	905.974145511913	0
8	5964	906.487767273741	0
8	5968	907.001389035569	0
8	5975	907.515010797397	0
8	5980	908.028632559225	0
8	5985	908.542254321053	0
8	5993	909.190415471281	0
8	5999	909.704037233109	0
8	6002	910.217658994937	0
8	6005	910.731280756765	0
8	6010	911.453866660454	0
8	6017	913.196926279427	0
8	6020	913.710548041255	0
8	6025	914.348923582567	0
8	6032	915.533163263379	0
8	6037	916.046785025207	0
8	6042	916.560406787035	0
8	6045	917.074028548863	0
8	6052	917.76511275049	0
8	6057	918.278734512318	0
8	6066	918.792356274146	0
8	6071	919.305978035974	0
8	6075	919.819599797802	0
8	6078	920.33322155963	0
8	6083	921.671608974355	0
8	6088	923.733186194122	0
8	6095	925.517511087476	0
8	6098	926.031132849304	0
8	6103	928.260110197018	0
8	6108	929.819890274324	0
8	6115	930.788536284514	0
8	6118	931.302158046342	0
8	6125	932.186871054208	0
8	6128	932.700492816036	0
8	6133	935.822138713427	0
8	6138	936.4151258637	0
8	6143	937.807188838725	0
8	6150	938.997090768076	0
8	6153	939.510712529904	0
8	6160	940.242848253832	0
8	6163	940.75647001566	0
8	6174	941.324125808758	0
8	6179	941.837747570586	0
8	6184	942.351369332414	0
8	6190	942.864991094242	0
8	6200	943.37861285607	0
8	6205	943.892234617898	0
8	6212	944.405856379726	0
8	6216	944.919478141554	0
8	6219	945.433099903382	0
8	6227	946.268184182743	0
8	6230	946.781805944571	0
8	6239	947.415280723449	0
8	6244	947.928902485277	0
8	6251	948.442524247105	0
8	6256	948.956146008933	0
8	6261	949.469767770761	0
8	6266	949.983389532589	0
8	6273	950.685929108852	0
8	6276	951.19955087068	0
8	6285	951.874036213941	0
8	6290	952.387657975769	0
8	6297	952.901279737597	0
8	6302	953.414901499425	0
8	6309	953.928523261253	0
8	6316	954.442145023081	0
8	6321	954.955766784909	0
8	6324	955.469388546737	0
8	6327	955.983010308565	0
8	6332	956.777468685957	0
8	6337	958.160687461938	0
8	6344	959.129383907221	0
8	6349	959.643005669049	0
8	6356	960.156627430877	0
8	6359	960.670249192705	0
8	6364	961.183870954533	0
8	6370	961.832032104761	0
8	6373	962.345653866589	0
8	6378	963.944711966485	0
8	6389	964.578945354573	0
8	6392	965.092567116401	0
8	6397	965.606188878229	0
8	6403	966.119810640057	0
8	6408	966.633432401885	0
8	6413	967.147054163713	0
8	6416	967.660675925541	0
8	6421	968.538752424635	0
8	6426	969.182542630676	0
8	6433	970.910539658379	0
8	6436	971.424161420207	0
8	6447	971.962433984777	0
8	6454	972.476055746605	0
8	6457	972.989677508433	0
8	6464	973.503299270261	0
8	6467	974.016921032089	0
8	6474	975.409908455196	0
8	6477	975.923530217024	0
8	6486	976.633620797122	0
8	6489	977.14724255895	0
8	6496	977.660864320778	0
8	6499	978.174486082606	0
8	6502	978.688107844434	0
8	6507	981.133959960182	0
8	6516	982.367494965459	0
8	6519	982.881116727287	0
8	6522	983.394738489115	0
8	6529	984.766891066275	0
8	6532	985.280512828103	0
8	6539	986.577454831561	0
8	6542	987.091076593389	0
8	6549	987.796221767964	0
8	6552	988.309843529792	0
8	6557	988.864039972891	0
8	6564	990.241800945755	0
8	6567	990.755422707583	0
8	6572	991.803755226231	0
8	6579	993.529545239111	0
8	6582	994.043167000939	0
8	6589	994.983394006808	0
8	6592	995.497015768636	0
8	6597	996.328960486694	0
8	6606	997.955117235348	0
8	6611	998.468738997176	0
8	6614	998.982360759004	0
8	6617	999.495982520832	0

