version 2
run General-63-20240201-11:04:15-40057
attr configname General
attr datetime 20240201-11:04:15
attr experiment General
attr inifile main.ini
attr iterationvars "$0=2.0, $1=3.5, $2=30"
attr iterationvarsf 2.0,3.5,30-
attr measurement "$0=2.0, $1=3.5, $2=30"
attr network Rete
attr processid 40057
attr repetition 3
attr replication #3
attr resultdir results
attr runnumber 63
attr seedset 63
param Rete.lambda 2.0
param Rete.a 0.3s
param Rete.b 3.5s
param Rete.c 0.1s
param Rete.d 0.3s
param Rete.mu 3.0
param Rete.source2.interArrivalTime exponential(1s/lambda)
param Rete.source2.jobServiceTime exponential(1s/mu)
param Rete.source2.deadline uniform(a,b)
param Rete.server2.j 30
param Rete.server2.V uniform(c,d)

vector 0 Rete.passiveQueue queueLength:vector ETV
attr interpolationmode sample-hold
attr title "queue length, vector"
vector 1 Rete.passiveQueue queueingTime:vector ETV
attr interpolationmode none
attr title "queueing time at dequeue, vector"
attr unit s
vector 2 Rete.sink lifeTime:vector ETV
attr interpolationmode none
attr title "lifetime of arrived jobs, vector"
attr unit s
vector 3 Rete.sink totalQueueingTime:vector ETV
attr interpolationmode none
attr title "the total time spent in queues by arrived jobs, vector"
attr unit s
vector 4 Rete.sink queuesVisited:vector ETV
attr interpolationmode none
attr title "the total number of queues visited by arrived jobs, vector"
vector 5 Rete.sink totalServiceTime:vector ETV
attr interpolationmode none
attr title "the total time spent  by arrived jobs, vector"
attr unit s
vector 6 Rete.sink totalDelayTime:vector ETV
attr interpolationmode none
attr title "the total time spent in delay nodes by arrived jobs, vector"
attr unit s
vector 7 Rete.sink delaysVisited:vector ETV
attr interpolationmode none
attr title "the total number of delays visited by arrived jobs, vector"
vector 8 Rete.sink generation:vector ETV
attr interpolationmode none
attr title "the generation of the arrived jobs, vector"
0	0	0	0
0	5	0.428313759339	1
0	7	0.465498085093	2
0	8	0.571849245104	1
0	11	0.740046441556	0
0	15	0.838426781009	1
0	16	0.908243638008	0
0	25	1.783968279759	1
0	26	1.869115409321	0
0	45	3.735753689554	1
0	46	3.756035440018	0
0	75	7.168287190943	1
0	76	7.208529152795	0
0	80	7.268661289507	1
0	82	7.315402686183	2
0	84	7.361708339149	3
0	85	7.376726349247	2
0	88	7.544923545699	1
0	92	7.66232939563	2
0	93	7.713120742151	1
0	96	7.881317938603	0
0	100	7.962654005348	1
0	101	8.049515135055	0
0	140	13.602262145311	1
0	141	13.609794451154	0
0	156	15.041008822372	1
0	158	15.05201887638	2
0	159	15.20656297086	1
0	162	15.374760167312	0
0	221	25.771260781085	1
0	223	25.878762639081	2
0	224	25.928787029581	1
0	227	26.096984226033	0
0	231	26.256202278047	1
0	232	26.265181422485	0
0	246	28.610745376123	1
0	247	28.767098154518	0
0	251	28.809678665081	1
0	252	28.93529535097	0
0	261	30.20450234725	1
0	262	30.243498182377	0
0	271	30.812698673388	1
0	272	30.92567568293	0
0	281	31.599088755182	1
0	282	31.658582179935	0
0	301	35.258222476538	1
0	305	35.447130785047	2
0	307	35.460031213469	3
0	308	35.510386596534	2
0	310	35.678583792986	1
0	314	35.797780050757	2
0	315	35.846780989438	1
0	318	36.01497818589	0
0	342	37.837697570153	1
0	343	37.908915314965	0
0	347	38.011125371811	1
0	348	38.077112511417	0
0	352	38.180312684698	1
0	353	38.245309707869	0
0	357	38.314816253979	1
0	358	38.413506904321	0
0	372	39.761909523946	1
0	373	39.877468787267	0
0	377	39.974905684881	1
0	378	40.045665983719	0
0	407	45.765324824001	1
0	408	45.875123537141	0
0	412	46.025653238782	1
0	413	46.043320733593	0
0	427	47.413707245915	1
0	428	47.430088655362	0
0	452	50.738559972169	1
0	456	50.838444320198	2
0	457	50.868222852397	1
0	459	51.036420048849	0
0	503	59.553973130537	1
0	504	59.704604494516	0
0	558	67.586874015649	1
0	559	67.72692865069	0
0	563	67.738308741627	1
0	564	67.895125847142	0
0	573	68.960745956228	1
0	574	69.124215563923	0
0	598	73.499908682181	1
0	599	73.666814299625	0
0	659	83.815088402735	1
0	660	83.83942700241	0
0	674	86.21839401961	1
0	675	86.253166304159	0
0	684	86.647136966979	1
0	685	86.794748421445	0
0	704	88.046354023578	1
0	705	88.16151909853	0
0	724	89.170795001412	1
0	725	89.318598907405	0
0	754	94.276689112447	1
0	758	94.379357969203	2
0	759	94.398738150644	1
0	761	94.566935347096	0
0	790	102.04441929441	1
0	791	102.124959986377	0
0	795	102.149275104908	1
0	796	102.293157182829	0
0	820	104.041876885894	1
0	822	104.147562098135	2
0	823	104.155374071121	1
0	827	104.231133797727	2
0	828	104.323571267573	1
0	832	104.405112655608	2
0	834	104.414806693448	3
0	835	104.491768464025	2
0	838	104.659965660477	1
0	841	104.828162856929	0
0	845	104.888490135204	1
0	846	104.996360053381	0
0	875	107.131828997036	1
0	877	107.181718316334	2
0	878	107.192777982383	1
0	881	107.360975178835	0
0	900	109.67066403372	1
0	901	109.828520782579	0
0	926	112.304310511499	1
0	927	112.354191774778	0
0	956	116.085499592951	1
0	958	116.117788489911	2
0	959	116.231019747548	1
0	962	116.399216944	0
0	966	116.533570909747	1
0	967	116.567414140452	0
0	971	116.600577361539	1
0	972	116.735611336904	0
0	991	117.958967419284	1
0	993	118.042591755354	2
0	994	118.058583133036	1
0	998	118.178907720663	2
0	1000	118.209586010385	3
0	1001	118.226780329488	2
0	1004	118.39497752594	1
0	1008	118.469939932429	2
0	1009	118.563174722392	1
0	1012	118.731371918844	0
0	1016	118.894632793823	1
0	1017	118.899569115296	0
0	1021	119.027864343214	1
0	1022	119.067766311748	0
0	1058	122.689200062117	1
0	1059	122.718344957948	0
0	1067	123.000193838644	1
0	1068	123.120483696314	0
0	1072	123.187111844893	1
0	1073	123.288680892766	0
0	1127	127.966620633098	1
0	1128	128.008809453512	0
0	1132	128.04718181689	1
0	1133	128.177006649964	0
0	1167	132.435176382382	1
0	1168	132.512964959583	0
0	1177	133.104921050217	1
0	1179	133.150158001926	2
0	1180	133.163959523527	1
0	1184	133.225729284255	2
0	1185	133.332156719979	1
0	1188	133.500353916431	0
0	1228	141.417143344334	1
0	1229	141.576357351654	0
0	1293	148.568384431582	1
0	1294	148.609086221299	0
0	1303	148.966600337049	1
0	1305	148.982190298643	2
0	1307	149.027093478147	3
0	1308	149.065172558677	2
0	1312	149.116192633714	3
0	1313	149.233369755129	2
0	1316	149.401566951581	1
0	1319	149.569764148033	0
0	1323	149.630292211011	1
0	1325	149.662865524104	2
0	1326	149.737961344485	1
0	1329	149.906158540937	0
0	1338	151.114629915125	1
0	1339	151.156880086676	0
0	1343	151.292315880981	1
0	1344	151.325077283128	0
0	1353	151.583275883454	1
0	1354	151.702213128761	0
0	1369	154.411469878194	1
0	1370	154.417557007178	0
0	1374	154.562657222776	1
0	1375	154.58575420363	0
0	1389	155.348470097933	1
0	1390	155.466934033757	0
0	1399	156.405561693065	1
0	1401	156.43380549759	2
0	1402	156.561400801448	1
0	1406	156.720082896285	2
0	1407	156.7295979979	1
0	1411	156.89097134132	2
0	1412	156.897795194352	1
0	1415	157.065992390804	0
0	1429	158.493425964741	1
0	1430	158.607631993849	0
0	1459	160.741586582958	1
0	1460	160.761372124725	0
0	1464	160.912681974689	1
0	1465	160.929569321177	0
0	1489	164.407129738022	1
0	1490	164.556689254374	0
0	1499	165.065953512468	1
0	1500	165.097392091419	0
0	1511	166.296093784153	1
0	1512	166.299928582718	0
0	1515	166.386071273364	1
0	1517	166.393228004635	2
0	1518	166.46812577917	1
0	1522	166.575111074076	2
0	1523	166.636322975622	1
0	1526	166.804520172074	0
0	1530	166.950056041031	1
0	1531	166.972717368526	0
0	1535	166.989657492648	1
0	1536	167.140914564978	0
0	1555	168.326333018198	1
0	1556	168.450042739919	0
0	1575	169.869678586874	1
0	1577	169.899674362045	2
0	1579	169.939038009596	3
0	1580	169.957020608946	2
0	1583	170.125217805398	1
0	1586	170.29341500185	0
0	1590	170.452804993613	1
0	1591	170.461612198302	0
0	1615	173.263316439356	1
0	1616	173.418044475317	0
0	1640	174.564793188693	1
0	1641	174.730544042008	0
0	1645	174.749398436347	1
0	1647	174.793083232681	2
0	1649	174.861562678999	3
0	1650	174.89874123846	2
0	1653	175.066938434912	1
0	1656	175.235135631364	0
0	1671	176.523189725284	1
0	1673	176.641077407124	2
0	1674	176.66244185381	1
0	1677	176.830639050262	0
0	1686	177.173006437444	1
0	1688	177.316983711039	2
0	1689	177.322958833127	1
0	1692	177.491156029579	0
0	1706	178.629583582444	1
0	1707	178.791792544707	0
0	1711	178.844586902811	1
0	1712	178.959989741159	0
0	1731	180.361017707219	1
0	1732	180.481328744201	0
0	1736	180.614848940949	1
0	1737	180.649525940653	0
0	1791	185.734167786741	1
0	1792	185.901440626443	0
0	1806	187.438468374145	1
0	1807	187.50253313812	0
0	1813	187.685260677511	1
0	1814	187.774314300348	0
0	1817	187.895202161696	1
0	1818	187.9425114968	0
0	1837	190.517898127191	1
0	1838	190.614521902928	0
0	1867	194.799720017092	1
0	1868	194.890976603592	0
0	1887	196.090241886484	1
0	1888	196.115128899932	0
0	1897	198.644550057724	1
0	1899	198.656981841953	2
0	1900	198.799649051965	1
0	1903	198.967846248417	0
0	1907	199.135116271174	1
0	1908	199.136043444869	0
0	1957	205.150672221364	1
0	1958	205.229642448124	0
0	1978	207.118264638012	1
0	1979	207.206730698326	0
0	1988	207.534352832794	1
0	1989	207.595105480401	0
0	2013	212.503898769323	1
0	2014	212.654605653602	0
0	2018	212.662165700576	1
0	2020	212.745071050359	2
0	2021	212.822802850054	1
0	2024	212.991000046506	0
0	2053	214.989758047644	1
0	2054	215.027980663842	0
0	2058	215.035241577313	1
0	2059	215.196177860294	0
0	2068	215.751959778077	1
0	2069	215.854427246699	0
0	2093	217.900919688794	1
0	2094	218.00519112874	0
0	2119	219.922615153871	1
0	2120	219.954544385323	0
0	2144	221.463918165406	1
0	2145	221.599727215502	0
0	2159	222.850397033478	1
0	2160	222.942461340403	0
0	2179	225.94047614449	1
0	2180	226.061126796812	0
0	2209	230.732650198225	1
0	2210	230.744344496793	0
0	2224	232.040849225748	1
0	2225	232.204879674266	0
0	2229	232.368583722285	1
0	2230	232.373076870718	0
0	2234	232.448609470041	1
0	2235	232.54127406717	0
0	2275	238.520219275635	1
0	2276	238.661063769358	0
0	2285	239.419115288068	1
0	2287	239.535798293563	2
0	2288	239.54517974923	1
0	2291	239.713376945682	0
0	2315	242.352050621085	1
0	2316	242.379305761908	0
0	2320	242.433156249069	1
0	2321	242.54750295836	0
0	2360	247.768159234287	1
0	2361	247.787228765265	0
0	2370	249.513019099238	1
0	2371	249.609100954443	0
0	2395	254.685550033329	1
0	2396	254.7673857577	0
0	2400	254.825301131103	1
0	2401	254.935582954152	0
0	2417	256.045112935802	1
0	2418	256.088191866561	0
0	2421	256.146394348469	1
0	2422	256.256389063013	0
0	2436	257.326103733453	1
0	2437	257.383463688027	0
0	2456	259.942358965893	1
0	2458	259.949378173513	2
0	2459	260.104375567141	1
0	2462	260.272572763593	0
0	2476	261.835248582009	1
0	2477	261.875716024037	0
0	2496	263.546143889575	1
0	2497	263.650025365485	0
0	2501	263.712848409518	1
0	2503	263.765660684149	2
0	2505	263.765851447948	3
0	2506	263.818222561937	2
0	2509	263.986419758389	1
0	2513	264.136865258736	2
0	2514	264.154616954841	1
0	2517	264.322814151293	0
0	2536	266.361876017867	1
0	2537	266.493425059229	0
0	2546	266.855680029407	1
0	2547	266.997641442211	0
0	2556	267.429009605687	1
0	2557	267.465525284916	0
0	2566	267.808575685176	1
0	2570	267.938885748974	2
0	2572	267.975030596367	3
0	2573	267.982523030369	2
0	2576	268.047252576916	3
0	2577	268.150720226821	2
0	2580	268.318917423273	1
0	2583	268.487114619725	0
0	2587	268.580144172972	1
0	2588	268.655311816177	0
0	2622	272.046337174869	1
0	2623	272.207828221298	0
0	2637	273.314325651499	1
0	2638	273.400577353551	0
0	2642	273.40285483036	1
0	2644	273.560138925974	2
0	2645	273.568774550003	1
0	2648	273.736971746455	0
0	2677	279.927198590578	1
0	2678	280.035523676405	0
0	2697	282.186464162891	1
0	2698	282.267963535788	0
0	2702	282.291410137638	1
0	2703	282.43616073224	0
0	2723	283.672693846526	1
0	2724	283.76511916368	0
0	2743	286.058871095481	1
0	2744	286.156959173176	0
0	2748	286.225997268791	1
0	2749	286.325156369628	0
0	2758	286.721095476005	1
0	2759	286.830653705085	0
0	2808	291.39501374557	1
0	2809	291.435645362261	0
0	2813	291.485008151994	1
0	2814	291.603842558713	0
0	2843	294.726078199804	1
0	2844	294.745671347227	0
0	2870	297.101157073534	1
0	2872	297.156311227587	2
0	2873	297.165867383876	1
0	2875	297.334064580328	0
0	2879	297.416443878543	1
0	2880	297.50226177678	0
0	2889	298.08555215305	1
0	2890	298.242219858389	0
0	2904	301.587286857234	1
0	2905	301.625115173979	0
0	2909	301.700376939763	1
0	2910	301.793312370431	0
0	2914	301.821029419032	1
0	2915	301.961509566883	0
0	2919	302.025868305359	1
0	2920	302.129706763335	0
0	2979	312.636183764977	1
0	2981	312.664212460126	2
0	2982	312.693074946491	1
0	2985	312.861272142943	0
0	2989	312.93983220545	1
0	2990	313.029469339395	0
0	2994	313.048762075554	1
0	2996	313.090145948492	2
0	2997	313.197666535847	1
0	3000	313.365863732299	0
0	3030	317.462662125763	1
0	3031	317.560738249284	0
0	3040	317.866085357542	1
0	3041	318.009658565227	0
0	3045	318.105129128894	1
0	3046	318.177855761679	0
0	3065	321.79964108501	1
0	3066	321.853785280435	0
0	3070	321.938545478504	1
0	3072	321.991269656899	2
0	3073	322.021982476887	1
0	3076	322.190179673339	0
0	3080	322.308409373155	1
0	3081	322.358376869791	0
0	3095	324.649698191029	1
0	3096	324.756171259458	0
0	3100	324.836123226934	1
0	3101	324.92436845591	0
0	3135	330.036753567189	1
0	3136	330.11203956439	0
0	3160	334.591583672279	1
0	3161	334.600379196316	0
0	3170	336.442301543781	1
0	3173	336.649613910821	0
0	3176	336.6834152516	1
0	3177	336.817811107273	0
0	3181	336.975521954863	1
0	3182	336.986008303725	0
0	3206	339.078027272149	1
0	3207	339.095567037988	0
0	3216	339.980032485575	1
0	3217	340.077377007978	0
0	3226	340.392690491821	1
0	3227	340.508229238516	0
0	3266	345.892720945141	1
0	3267	345.917183162291	0
0	3301	350.551168934026	1
0	3302	350.614352503274	0
0	3323	352.102005639345	1
0	3324	352.203936179883	0
0	3327	352.266360908003	1
0	3328	352.372133376335	0
0	3357	354.706575406255	1
0	3358	354.814093099815	0
0	3362	354.913581518759	1
0	3364	354.940400052743	2
0	3365	354.982290296267	1
0	3368	355.150487492719	0
0	3382	356.349232611502	1
0	3383	356.387135766587	0
0	3397	357.192505706673	1
0	3398	357.203884116162	0
0	3402	357.283080971043	1
0	3403	357.372081312614	0
0	3407	357.43061839936	1
0	3408	357.540278509066	0
0	3447	361.589888028929	1
0	3448	361.6257274152	0
0	3467	363.771018514141	1
0	3469	363.788714928041	2
0	3471	363.853443277656	3
0	3472	363.912147901147	2
0	3476	364.020650449955	3
0	3479	364.183929063375	2
0	3481	364.352126259827	1
0	3484	364.520323456279	0
0	3523	367.492498909491	1
0	3525	367.57549843479	2
0	3526	367.623731973656	1
0	3529	367.791929170108	0
0	3548	369.611823780212	1
0	3550	369.680151594659	2
0	3552	369.706308290269	3
0	3553	369.722988869283	2
0	3556	369.891186065735	1
0	3559	370.059383262187	0
0	3573	370.647009919917	1
0	3574	370.80843440744	0
0	3593	372.095549889504	1
0	3594	372.12915424812	0
0	3598	372.202232755103	1
0	3599	372.297351444572	0
0	3623	374.694691155477	1
0	3625	374.788198539198	2
0	3629	374.866378431661	3
0	3630	374.939894020647	2
0	3632	375.108091217099	1
0	3635	375.276288413551	0
0	3639	375.309006126063	1
0	3640	375.444485610003	0
0	3659	376.819815097862	1
0	3660	376.987253995891	0
0	3704	380.207876087038	1
0	3705	380.328409548441	0
0	3769	388.518634587418	1
0	3770	388.58069768633	0
0	3776	388.771603089064	1
0	3777	388.852478848558	0
0	3805	392.523762492171	1
0	3806	392.62409024055	0
0	3810	392.739220167589	1
0	3811	392.792287437002	0
0	3885	403.43205145346	1
0	3886	403.452138475289	0
0	3915	408.456557849696	1
0	3916	408.491726570608	0
0	3925	411.135519791745	1
0	3928	411.263255114451	0
0	3946	412.959808642362	1
0	3948	412.965553070168	2
0	3949	413.116730414669	1
0	3952	413.284927611121	0
0	3976	417.460671022123	1
0	3977	417.543170101213	0
0	3981	417.568500769526	1
0	3982	417.711367297665	0
0	3996	418.408111254339	1
0	3997	418.410919714116	0
0	4006	419.201127890339	1
0	4007	419.237179093975	0
0	4011	419.370396835378	1
0	4012	419.405376290427	0
0	4021	420.572572206851	1
0	4022	420.740132544262	0
0	4026	420.88730485176	1
0	4027	420.908329740714	0
0	4041	422.688205497311	1
0	4042	422.811091021643	0
0	4056	424.815909481947	1
0	4057	424.904292859726	0
0	4061	425.040001054927	1
0	4063	425.069531129872	2
0	4064	425.072490056178	1
0	4067	425.24068725263	0
0	4078	425.759336771202	1
0	4079	425.812508673126	0
0	4087	426.905735443356	1
0	4088	426.931944537268	0
0	4102	428.263135266159	1
0	4103	428.366947775673	0
0	4137	432.325621988874	1
0	4138	432.460109235195	0
0	4157	433.641243234258	1
0	4159	433.735169625159	2
0	4160	433.766328862087	1
0	4164	433.766636797655	2
0	4165	433.934526058539	1
0	4169	433.977430354696	2
0	4170	434.102723254991	1
0	4174	434.230444430934	2
0	4175	434.270920451443	1
0	4178	434.439117647895	0
0	4192	435.98336089391	1
0	4193	435.996112706503	0
0	4222	443.680207926932	1
0	4224	443.68942900803	2
0	4225	443.781684871153	1
0	4230	444.053466033381	0
0	4283	451.488899821822	1
0	4284	451.582355514799	0
0	4298	453.620993323913	1
0	4299	453.627647502196	0
0	4303	453.669852961139	1
0	4304	453.795844698648	0
0	4318	455.46947263661	1
0	4319	455.491186322642	0
0	4353	459.791853883514	1
0	4355	459.912672651564	2
0	4356	459.923243205792	1
0	4359	460.091440402244	0
0	4368	460.625739059621	1
0	4370	460.678206079632	2
0	4371	460.72779529364	1
0	4374	460.895992490092	0
0	4404	464.482517361695	1
0	4405	464.612355423893	0
0	4414	464.878055883384	1
0	4415	464.998887828596	0
0	4429	467.670520285325	1
0	4430	467.740786895309	0
0	4444	470.062548563863	1
0	4445	470.14958682699	0
0	4459	471.566602366376	1
0	4460	471.579772212209	0
0	4469	471.760174866941	1
0	4470	471.922905228384	0
0	4494	474.77492116312	1
0	4495	474.896639536195	0
0	4529	477.80283771058	1
0	4532	477.959653947763	0
0	4540	478.78032870155	1
0	4541	478.792446332989	0
0	4560	481.872339846847	1
0	4562	481.918692056986	2
0	4563	482.001436707059	1
0	4567	482.066178453497	2
0	4568	482.169633903511	1
0	4571	482.337831099963	0
0	4600	489.481274617173	1
0	4601	489.524549307381	0
0	4610	490.290076151497	1
0	4611	490.386368817027	0
0	4625	492.198930554312	1
0	4627	492.218556014738	2
0	4628	492.30150408605	1
0	4632	492.324940978184	2
0	4634	492.412820147953	3
0	4635	492.469701282502	2
0	4639	492.615411684965	3
0	4640	492.637898478954	2
0	4643	492.806095675406	1
0	4646	492.974292871858	0
0	4650	492.983720743362	1
0	4651	493.14249006831	0
0	4711	498.910540009337	1
0	4712	499.022354534044	0
0	4716	499.105955504092	1
0	4717	499.190551730496	0
0	4731	500.436574741549	1
0	4732	500.565692886614	0
0	4746	501.273581081443	1
0	4748	501.429328750182	2
0	4749	501.434360672148	1
0	4752	501.6025578686	0
0	4776	503.937907916583	1
0	4777	504.049389997964	0
0	4781	504.16966323597	1
0	4782	504.217587194416	0
0	4786	504.297987757493	1
0	4787	504.385784390868	0
0	4806	508.137225829623	1
0	4807	508.190927528225	0
0	4816	510.11869775011	1
0	4817	510.202058911911	0
0	4837	512.09435908981	1
0	4838	512.195135834014	0
0	4877	519.147429112254	1
0	4878	519.164053505477	0
0	4942	526.925031862023	1
0	4944	526.944190514456	2
0	4945	527.032092993672	1
0	4948	527.200290190124	0
0	4952	527.319751287693	1
0	4954	527.346505266032	2
0	4955	527.368487386576	1
0	4958	527.536684583028	0
0	5008	533.43728538743	1
0	5009	533.461418732797	0
0	5018	536.067353599609	1
0	5019	536.121167188977	0
0	5028	536.375823949986	1
0	5029	536.500730150023	0
0	5038	537.181909532514	1
0	5039	537.228427950496	0
0	5058	538.495034711457	1
0	5059	538.652141920113	0
0	5073	540.378884639346	1
0	5074	540.379595561818	0
0	5088	541.061049037592	1
0	5090	541.101078555566	2
0	5092	541.117221729634	3
0	5093	541.159846644622	2
0	5096	541.328043841074	1
0	5099	541.496241037526	0
0	5118	543.094941960678	1
0	5119	543.166150771289	0
0	5128	543.561524547113	1
0	5130	543.602381958231	2
0	5131	543.639178922934	1
0	5136	543.910960085162	0
0	5169	548.616813594103	1
0	5170	548.740941387714	0
0	5194	550.654864145637	1
0	5195	550.79058385392	0
0	5209	552.495972604835	1
0	5210	552.645340283781	0
0	5219	553.806694022936	1
0	5220	553.851541931191	0
0	5320	566.607105062656	1
0	5322	566.730071606238	2
0	5324	566.732866126229	3
0	5325	566.77486671481	2
0	5329	566.856530811163	3
0	5331	566.941604607857	4
0	5332	566.943063911262	3
0	5335	567.111261107714	2
0	5338	567.279458304166	1
0	5341	567.447655500618	0
0	5370	569.898485271334	1
0	5371	569.920016013497	0
0	5380	570.234455709957	1
0	5381	570.304355416207	0
0	5400	571.860384344303	1
0	5401	571.887965804938	0
0	5405	571.942183423775	1
0	5406	572.05616300139	0
0	5410	572.077575476895	1
0	5412	572.212881182884	2
0	5413	572.224360197842	1
0	5416	572.392557394294	0
0	5437	574.718780159784	1
0	5439	574.7482154719	2
0	5440	574.787960382195	1
0	5442	574.956157578647	0
0	5456	576.321614625311	1
0	5457	576.462034619404	0
0	5536	586.754866789592	1
0	5537	586.921240715119	0
0	5576	592.356014272554	1
0	5577	592.43366683649	0
0	5586	593.026373613039	1
0	5589	593.229364156813	0
0	5612	596.605251896068	1
0	5613	596.726227975162	0
0	5617	596.792051617393	1
0	5618	596.894425171614	0
0	5627	597.309665217766	1
0	5629	597.317017571103	2
0	5630	597.355534990128	1
0	5633	597.52373218658	0
0	5652	598.688526620543	1
0	5653	598.782190500029	0
0	5672	600.15121123866	1
0	5674	600.269593514439	2
0	5675	600.297609983076	1
0	5679	600.401212400963	2
0	5680	600.465807179528	1
0	5683	600.63400437598	0
0	5702	602.308323291466	1
0	5703	602.423554816708	0
0	5707	602.463488875399	1
0	5708	602.59175201316	0
0	5717	603.275627013097	1
0	5718	603.403034679652	0
0	5753	606.753301081183	1
0	5754	606.912152564878	0
0	5758	606.914967865443	1
0	5759	607.08034976133	0
0	5783	609.556810331838	1
0	5784	609.701528577546	0
0	5788	609.751738173948	1
0	5789	609.869725773998	0
0	5793	609.898613397546	1
0	5795	609.970583535908	2
0	5797	610.024184364059	3
0	5798	610.03792297045	2
0	5802	610.09681527672	3
0	5803	610.206120166902	2
0	5806	610.374317363354	1
0	5809	610.542514559806	0
0	5873	617.189436728584	1
0	5874	617.356821476252	0
0	5878	617.412608125843	1
0	5879	617.525018672704	0
0	5899	620.753987476149	1
0	5900	620.781848332189	0
0	5904	620.840239908897	1
0	5905	620.950045528641	0
0	5909	621.072657628342	1
0	5911	621.084679706086	2
0	5912	621.118242725093	1
0	5915	621.286439921545	0
0	5954	625.134347270781	1
0	5955	625.292668694689	0
0	5964	625.537286568493	1
0	5965	625.656175819246	0
0	5969	625.683718886188	1
0	5970	625.824373015698	0
0	5989	628.219761859722	1
0	5990	628.242734789057	0
0	6041	635.24070003907	1
0	6042	635.323255813709	0
0	6085	639.271435947644	1
0	6086	639.385313631778	0
0	6095	640.547446035889	1
0	6096	640.61973137627	0
0	6125	643.004774579384	1
0	6126	643.164101208954	0
0	6145	645.295125708524	1
0	6146	645.441356446443	0
0	6155	646.452427009793	1
0	6156	646.455753981738	0
0	6170	647.566760338748	1
0	6171	647.672266761507	0
0	6211	651.533397866558	1
0	6212	651.686428682697	0
0	6226	653.048967315235	1
0	6228	653.088279346147	2
0	6229	653.158058174997	1
0	6233	653.278901157856	2
0	6234	653.326255371449	1
0	6237	653.494452567901	0
0	6241	653.564620936504	1
0	6242	653.662649764353	0
0	6286	657.396721723792	1
0	6288	657.466287736038	2
0	6289	657.536055603477	1
0	6292	657.704252799929	0
0	6326	662.701693699926	1
0	6327	662.841805791428	0
0	6331	662.883949780537	1
0	6332	663.01000298788	0
0	6336	663.092519215361	1
0	6338	663.095642151969	2
0	6339	663.178200184332	1
0	6343	663.196206107723	2
0	6346	663.44998134656	1
0	6348	663.618178543012	0
0	6362	664.480648478616	1
0	6363	664.615097859612	0
0	6367	664.660481974667	1
0	6368	664.783295056064	0
0	6372	664.872810681501	1
0	6373	664.951492252516	0
0	6392	667.756547033966	1
0	6393	667.868193850107	0
0	6543	684.906728198149	1
0	6544	684.947647395203	0
0	6548	685.076727946848	1
0	6549	685.115844591655	0
0	6553	685.188023594218	1
0	6554	685.284041788107	0
0	6598	689.155691897267	1
0	6599	689.162135494918	0
0	6603	689.30969343685	1
0	6604	689.33033269137	0
0	6623	691.279411057183	1
0	6624	691.399021387451	0
0	6633	694.844797229917	1
0	6634	694.92185864507	0
0	6638	695.013361362392	1
0	6639	695.090055841522	0
0	6643	695.095938808912	1
0	6646	695.36183700375	0
0	6659	696.531291553327	1
0	6660	696.644419985211	0
0	6669	696.970538845409	1
0	6670	697.095107672635	0
0	6744	706.727680799986	1
0	6746	706.859103199067	2
0	6747	706.895376749608	1
0	6751	707.003818401863	2
0	6752	707.06357394606	1
0	6755	707.231771142512	0
0	6789	711.185285683228	1
0	6790	711.30808191189	0
0	6796	711.553511441839	1
0	6797	711.579863074118	0
0	6815	713.253309074442	1
0	6817	713.40561013323	2
0	6818	713.406626270435	1
0	6822	713.441415602736	2
0	6823	713.574823466887	1
0	6827	713.737985548753	2
0	6828	713.743020663339	1
0	6831	713.911217859791	0
0	6835	713.989911915463	1
0	6836	714.079415056243	0
0	6840	714.219173538446	1
0	6841	714.247612252695	0
0	6855	717.6686596279	1
0	6856	717.731931169233	0
0	6860	717.808114001034	1
0	6861	717.900128365685	0
0	6865	717.981099061961	1
0	6866	718.068325562137	0
0	6870	718.179037910563	1
0	6871	718.236522758589	0
0	6875	718.355072758206	1
0	6877	718.374404185613	2
0	6878	718.404719955041	1
0	6881	718.572917151493	0
0	6885	718.720244308541	1
0	6886	718.741114347945	0
0	6890	718.850111730172	1
0	6891	718.909311544397	0
0	6905	721.124296712059	1
0	6906	721.224051082828	0
0	6910	721.310696621139	1
0	6911	721.39224827928	0
0	6940	724.897416593765	1
0	6941	725.02890561996	0
0	6945	725.050445258314	1
0	6949	725.259028710075	2
0	6950	725.300686782188	1
0	6953	725.306432509765	2
0	6954	725.46888397864	1
0	6957	725.637081175092	0
0	7001	734.108257351153	1
0	7002	734.263989227905	0
0	7006	734.296376995584	1
0	7007	734.432186424357	0
0	7016	735.05944823831	1
0	7017	735.119354763563	0
0	7031	735.760177424787	1
0	7032	735.882493486149	0
0	7036	735.929793233172	1
0	7037	736.050690682601	0
0	7061	739.247087394085	1
0	7063	739.287366603703	2
0	7064	739.356499627227	1
0	7067	739.524696823679	0
0	7071	739.581048677249	1
0	7072	739.692894020131	0
0	7086	740.837360150816	1
0	7087	740.881315369551	0
0	7107	742.231140783128	1
0	7109	742.337111231879	2
0	7110	742.350961780484	1
0	7113	742.519158976936	0
0	7117	742.578218149866	1
0	7118	742.687356173388	0
0	7222	761.34731119982	1
0	7223	761.494875119412	0
0	7227	761.633491357812	1
0	7228	761.663072315864	0
0	7258	764.224411127103	1
0	7259	764.37841773898	0
0	7283	766.858948050717	1
0	7284	766.927837165833	0
0	7293	767.220906729418	1
0	7295	767.26010119131	2
0	7296	767.329007195468	1
0	7299	767.49720439192	0
0	7363	778.807223959542	1
0	7364	778.882956620576	0
0	7388	782.967722114554	1
0	7389	783.02977544223	0
0	7398	783.464966894562	1
0	7400	783.479119031326	2
0	7403	783.664073681477	1
0	7406	783.761087632636	2
0	7407	783.832270877929	1
0	7410	784.000468074381	0
0	7414	784.123883339481	1
0	7415	784.168665270833	0
0	7454	789.68885256187	1
0	7455	789.793231488797	0
0	7464	790.635252264017	1
0	7466	790.64068842402	2
0	7467	790.75897519354	1
0	7470	790.927172389992	0
0	7479	792.004344082034	1
0	7480	792.079852597994	0
0	7489	792.832368733988	1
0	7490	792.891198381684	0
0	7504	793.796455334656	1
0	7505	793.953693161496	0
0	7524	796.334031277677	1
0	7525	796.38200198672	0
0	7529	796.397273935288	1
0	7530	796.550199183172	0
0	7534	796.603027658521	1
0	7536	796.709629981228	2
0	7537	796.718396379624	1
0	7541	796.862102867597	2
0	7542	796.886593576076	1
0	7545	797.054790772528	0
0	7551	797.30044392975	1
0	7552	797.326571934756	0
0	7570	798.681873273767	1
0	7571	798.702317049324	0
0	7590	801.451108410656	1
0	7591	801.464563307559	0
0	7620	805.03881038649	1
0	7621	805.124454924665	0
0	7625	805.255038944624	1
0	7626	805.292652121117	0
0	7706	816.001931393009	1
0	7708	816.045260994208	2
0	7709	816.067658522433	1
0	7713	816.144611074827	2
0	7714	816.235855718885	1
0	7717	816.404052915337	0
0	7736	819.035512285448	1
0	7737	819.106847424561	0
0	7756	821.223145205296	1
0	7757	821.282829385541	0
0	7761	821.296908427602	1
0	7762	821.451026581993	0
0	7771	821.957566439834	1
0	7772	822.006495498158	0
0	7786	823.18266449572	1
0	7787	823.227671623367	0
0	7796	823.602293687226	1
0	7797	823.697337472183	0
0	7811	824.570625468695	1
0	7812	824.731262456528	0
0	7831	827.964110671003	1
0	7832	828.058451824808	0
0	7846	829.391880739052	1
0	7847	829.472840159289	0
0	7867	831.977624496065	1
0	7868	832.074573453377	0
0	7872	832.182699437285	1
0	7873	832.242770649829	0
0	7877	832.406604166737	1
0	7878	832.410967846281	0
0	7897	833.845600643013	1
0	7898	833.970650708946	0
0	7922	836.187947641567	1
0	7923	836.28172028722	0
0	7927	836.295186809712	1
0	7928	836.449917483672	0
0	7932	836.575500315471	1
0	7933	836.618114680124	0
0	7937	836.628842745423	1
0	7938	836.786311876576	0
0	7942	836.926133341052	1
0	7943	836.954509073028	0
0	7947	836.970970937171	1
0	7949	837.066127022421	2
0	7951	837.078873564694	3
0	7952	837.12270626948	2
0	7955	837.290903465932	1
0	7958	837.459100662384	0
0	8048	850.994834792706	1
0	8049	851.020993844139	0
0	8068	852.276165369386	1
0	8070	852.380057778169	2
0	8072	852.409028149377	3
0	8073	852.443444167833	2
0	8077	852.531050401222	3
0	8078	852.611641364285	2
0	8081	852.779838560737	1
0	8084	852.948035757189	0
0	8113	855.985706408806	1
0	8115	856.032603706297	2
0	8117	856.066894301417	3
0	8118	856.099714762664	2
0	8122	856.193258537212	3
0	8123	856.267911959116	2
0	8126	856.436109155568	1
0	8129	856.60430635202	0
0	8133	856.656003065586	1
0	8134	856.772503548472	0
0	8138	856.905844530414	1
0	8139	856.940700744924	0
0	8148	857.342824683548	1
0	8149	857.443429441786	0
0	8153	857.49172351238	1
0	8156	857.715210604014	0
0	8159	857.853521133274	1
0	8160	857.883407800466	0
0	8189	861.153019922734	1
0	8190	861.217842830937	0
0	8199	862.567827821034	1
0	8200	862.600423799933	0
0	8249	869.060119602992	1
0	8250	869.081433916664	0
0	8259	869.584068126715	1
0	8260	869.602156111057	0
0	8264	869.626175478259	1
0	8265	869.770353307509	0
0	8274	870.496128467861	1
0	8275	870.659935017585	0
0	8294	872.099315949409	1
0	8295	872.260449242313	0
0	8299	872.356444281811	1
0	8300	872.428646438765	0
0	8350	879.709917826541	1
0	8351	879.815292362983	0
0	8481	895.308312017413	1
0	8482	895.348491796057	0
0	8491	895.756980705403	1
0	8492	895.878500613791	0
0	8506	899.105800462738	1
0	8507	899.108779261456	0
0	8531	900.986148087333	1
0	8532	901.078673325681	0
0	8556	902.944534611047	1
0	8557	903.107870876962	0
0	8571	905.085866483141	1
0	8572	905.237453613235	0
0	8576	905.279325684517	1
0	8577	905.405650809687	0
0	8581	905.481709672867	1
0	8583	905.536503247398	2
0	8584	905.573848006139	1
0	8588	905.707343991912	2
0	8589	905.742045202591	1
0	8593	905.878953050452	2
0	8594	905.910242399043	1
0	8598	905.953753749439	2
0	8599	906.078439595495	1
0	8602	906.246636791947	0
0	8606	906.372109667332	1
0	8608	906.372866622967	2
0	8611	906.518417954175	1
0	8613	906.686615150627	0
0	8647	911.047198276512	1
0	8648	911.073393442633	0
0	8657	911.881872577877	1
0	8659	911.979310089473	2
0	8660	912.014205944375	1
0	8663	912.182403140827	0
0	8692	916.033690312943	1
0	8693	916.113981703392	0
0	8702	916.623815956266	1
0	8703	916.766214505749	0
0	8717	917.682816112674	1
0	8719	917.700655492756	2
0	8720	917.701158664322	1
0	8723	917.869355860774	0
0	8737	919.518675539746	1
0	8739	919.541180894715	2
0	8740	919.623373937938	1
0	8743	919.79157113439	0
0	8763	922.180517167118	1
0	8764	922.257147513344	0
0	8773	923.215145926679	1
0	8774	923.225670525023	0
0	8783	923.954379150626	1
0	8784	924.001141741431	0
0	8798	924.950977401596	1
0	8799	924.961208304733	0
0	8828	928.042656552683	1
0	8830	928.069108852369	2
0	8831	928.165049771991	1
0	8834	928.333246968443	0
0	8863	931.490080929144	1
0	8864	931.553217057771	0
0	8873	933.327782177429	1
0	8874	933.452502513391	0
0	8888	934.618164099372	1
0	8890	934.73947025941	2
0	8891	934.741346043331	1
0	8895	934.828993962095	2
0	8896	934.909543239783	1
0	8899	935.077740436235	0
0	8929	938.443184250693	1
0	8930	938.557586510925	0
0	8949	939.873087316151	1
0	8950	940.022426074573	0
0	8964	941.998098128194	1
0	8965	942.119065850825	0
0	9044	949.964188790365	1
0	9046	949.979965678724	2
0	9047	950.101008067533	1
0	9050	950.269205263985	0
0	9054	950.430011410348	1
0	9055	950.437402460437	0
0	9090	954.069315145036	1
0	9091	954.197034494733	0
0	9105	954.827828398385	1
0	9106	954.949202081976	0
0	9110	954.951904007753	1
0	9112	955.002453643267	2
0	9113	955.117399278428	1
0	9116	955.28559647488	0
0	9120	955.395936257612	1
0	9121	955.453793671332	0
0	9140	960.468806270591	1
0	9141	960.600124562129	0
0	9165	964.115107567669	1
0	9167	964.22176862055	2
0	9168	964.270042792781	1
0	9172	964.298424153712	2
0	9173	964.438239989233	1
0	9177	964.579153072067	2
0	9178	964.606437185685	1
0	9181	964.774634382137	0
0	9195	966.21646270161	1
0	9197	966.258851041463	2
0	9198	966.275603067416	1
0	9201	966.443800263868	0
0	9216	969.942564203166	1
0	9217	970.02251199322	0
0	9256	975.671002891655	1
0	9258	975.759765832278	2
0	9259	975.831565556992	1
0	9262	975.999762753444	0
0	9321	982.826773723897	1
0	9323	982.864874944815	2
0	9324	982.908617512465	1
0	9327	983.076814708917	0
0	9331	983.089382218893	1
0	9332	983.245011905369	0
0	9341	983.53990117717	1
0	9342	983.589680437959	0
0	9361	984.290030522826	1
0	9364	984.514880436631	0
0	9367	984.659165872918	1
0	9368	984.683077633083	0
0	9387	987.111049910412	1
0	9389	987.143823394826	2
0	9390	987.191398935044	1
0	9393	987.359596131496	0
0	9397	987.467181597028	1
0	9398	987.527793327948	0
0	9417	990.318543984799	1
0	9419	990.328480586497	2
0	9420	990.457526251339	1
0	9423	990.625723447791	0
0	9427	990.730399822617	1
0	9428	990.793920644243	0
0	9442	992.346710123753	1
0	9444	992.352756912414	2
0	9445	992.509894330344	1
0	9448	992.678091526796	0
0	9457	993.558947260677	1
0	9458	993.657211598652	0
0	9472	994.559335609343	1
0	9473	994.594465975147	0
0	9487	996.477982811787	1
0	9488	996.562727960134	0
0	9492	996.644398640768	1
0	9493	996.730925156586	0
0	9497	996.820328571177	1
0	9499	996.887464663646	2
0	9500	996.899122353038	1
0	9503	997.06731954949	0
0	9512	997.802815771304	1
0	9515	997.932724949895	0
0	9528	999.322054066381	1
0	9529	999.466267387898	0
1	8	0.571849245104	0.143535485765
1	11	0.740046441556	0.274548356463
1	16	0.908243638008	0.069816856999
1	26	1.869115409321	0.085147129562
1	46	3.756035440018	0.020281750464
1	76	7.208529152795	0.040241961852
1	85	7.376726349247	0.10806505974
1	88	7.544923545699	0.229520859516
1	93	7.713120742151	0.351412403002
1	96	7.881317938603	0.218988542973
1	101	8.049515135055	0.086861129707
1	141	13.609794451154	0.007532305843
1	159	15.20656297086	0.165554148488
1	162	15.374760167312	0.322741290932
1	224	25.928787029581	0.157526248496
1	227	26.096984226033	0.218221586952
1	232	26.265181422485	0.008979144438
1	247	28.767098154518	0.156352778395
1	252	28.93529535097	0.125616685889
1	262	30.243498182377	0.038995835127
1	272	30.92567568293	0.112977009542
1	282	31.658582179935	0.059493424753
1	308	35.510386596534	0.252164119996
1	310	35.678583792986	0.231453007939
1	315	35.846780989438	0.386749775969
1	318	36.01497818589	0.217198135133
1	343	37.908915314965	0.071217744812
1	348	38.077112511417	0.065987139606
1	353	38.245309707869	0.064997023171
1	358	38.413506904321	0.098690650342
1	373	39.877468787267	0.115559263321
1	378	40.045665983719	0.070760298838
1	408	45.875123537141	0.10979871314
1	413	46.043320733593	0.017667494811
1	428	47.430088655362	0.016381409447
1	457	50.868222852397	0.129662880228
1	459	51.036420048849	0.197975728651
1	504	59.704604494516	0.150631363979
1	559	67.72692865069	0.140054635041
1	564	67.895125847142	0.156817105515
1	574	69.124215563923	0.163469607695
1	599	73.666814299625	0.166905617444
1	660	83.83942700241	0.024338599675
1	675	86.253166304159	0.034772284549
1	685	86.794748421445	0.147611454466
1	705	88.16151909853	0.115165074952
1	725	89.318598907405	0.147803905993
1	759	94.398738150644	0.122049038197
1	761	94.566935347096	0.187577377893
1	791	102.124959986377	0.080540691967
1	796	102.293157182829	0.143882077921
1	823	104.155374071121	0.113497185227
1	828	104.323571267573	0.176009169438
1	835	104.491768464025	0.260634666298
1	838	104.659965660477	0.254853004869
1	841	104.828162856929	0.413356163481
1	846	104.996360053381	0.107869918177
1	878	107.192777982383	0.060948985347
1	881	107.360975178835	0.179256862501
1	901	109.828520782579	0.157856748859
1	927	112.354191774778	0.049881263279
1	959	116.231019747548	0.145520154597
1	962	116.399216944	0.281428454089
1	967	116.567414140452	0.033843230705
1	972	116.735611336904	0.135033975365
1	994	118.058583133036	0.099615713752
1	1001	118.226780329488	0.184188574134
1	1004	118.39497752594	0.216069805277
1	1009	118.563174722392	0.353588712007
1	1012	118.731371918844	0.261431986415
1	1017	118.899569115296	0.004936321473
1	1022	119.067766311748	0.039901968534
1	1059	122.718344957948	0.029144895831
1	1068	123.120483696314	0.12028985767
1	1073	123.288680892766	0.101569047873
1	1128	128.008809453512	0.042188820414
1	1133	128.177006649964	0.129824833074
1	1168	132.512964959583	0.077788577201
1	1180	133.163959523527	0.05903847331
1	1185	133.332156719979	0.181998718053
1	1188	133.500353916431	0.274624632176
1	1229	141.576357351654	0.15921400732
1	1294	148.609086221299	0.040701789717
1	1308	149.065172558677	0.098572221628
1	1313	149.233369755129	0.251179456486
1	1316	149.401566951581	0.374473473434
1	1319	149.569764148033	0.453571514319
1	1326	149.737961344485	0.107669133474
1	1329	149.906158540937	0.243293016833
1	1339	151.156880086676	0.042250171551
1	1344	151.325077283128	0.032761402147
1	1354	151.702213128761	0.118937245307
1	1370	154.417557007178	0.006087128984
1	1375	154.58575420363	0.023096980854
1	1390	155.466934033757	0.118463935824
1	1402	156.561400801448	0.155839108383
1	1407	156.7295979979	0.29579250031
1	1412	156.897795194352	0.177712298067
1	1415	157.065992390804	0.175021049484
1	1430	158.607631993849	0.114206029108
1	1460	160.761372124725	0.019785541767
1	1465	160.929569321177	0.016887346488
1	1490	164.556689254374	0.149559516352
1	1500	165.097392091419	0.031438578951
1	1512	166.299928582718	0.003834798565
1	1518	166.46812577917	0.082054505806
1	1523	166.636322975622	0.243094970987
1	1526	166.804520172074	0.229409097998
1	1531	166.972717368526	0.022661327495
1	1536	167.140914564978	0.15125707233
1	1556	168.450042739919	0.123709721721
1	1580	169.957020608946	0.087342022072
1	1583	170.125217805398	0.225543443353
1	1586	170.29341500185	0.354376992254
1	1591	170.461612198302	0.008807204689
1	1616	173.418044475317	0.154728035961
1	1641	174.730544042008	0.165750853315
1	1650	174.89874123846	0.149342802113
1	1653	175.066938434912	0.273855202231
1	1656	175.235135631364	0.373572952365
1	1674	176.66244185381	0.139252128526
1	1677	176.830639050262	0.189561643138
1	1689	177.322958833127	0.149952395683
1	1692	177.491156029579	0.17417231854
1	1707	178.791792544707	0.162208962263
1	1712	178.959989741159	0.115402838348
1	1732	180.481328744201	0.120311036982
1	1737	180.649525940653	0.034676999704
1	1792	185.901440626443	0.167272839702
1	1807	187.50253313812	0.064064763975
1	1814	187.774314300348	0.089053622837
1	1818	187.9425114968	0.047309335104
1	1838	190.614521902928	0.096623775737
1	1868	194.890976603592	0.0912565865
1	1888	196.115128899932	0.024887013448
1	1900	198.799649051965	0.155098994241
1	1903	198.967846248417	0.310864406464
1	1908	199.136043444869	0.000927173695
1	1958	205.229642448124	0.07897022676
1	1979	207.206730698326	0.088466060314
1	1989	207.595105480401	0.060752647607
1	2014	212.654605653602	0.150706884279
1	2021	212.822802850054	0.160637149478
1	2024	212.991000046506	0.245928996147
1	2054	215.027980663842	0.038222616198
1	2059	215.196177860294	0.160936282981
1	2069	215.854427246699	0.102467468622
1	2094	218.00519112874	0.104271439946
1	2120	219.954544385323	0.031929231452
1	2145	221.599727215502	0.135809050096
1	2160	222.942461340403	0.092064306925
1	2180	226.061126796812	0.120650652322
1	2210	230.744344496793	0.011694298568
1	2225	232.204879674266	0.164030448518
1	2230	232.373076870718	0.004493148433
1	2235	232.54127406717	0.092664597129
1	2276	238.661063769358	0.140844493723
1	2288	239.54517974923	0.126064461162
1	2291	239.713376945682	0.177578652119
1	2316	242.379305761908	0.027255140823
1	2321	242.54750295836	0.114346709291
1	2361	247.787228765265	0.019069530978
1	2371	249.609100954443	0.096081855205
1	2396	254.7673857577	0.081835724371
1	2401	254.935582954152	0.110281823049
1	2418	256.088191866561	0.043078930759
1	2422	256.256389063013	0.109994714544
1	2437	257.383463688027	0.057359954574
1	2459	260.104375567141	0.162016601248
1	2462	260.272572763593	0.32319459008
1	2477	261.875716024037	0.040467442028
1	2497	263.650025365485	0.10388147591
1	2506	263.818222561937	0.105374152419
1	2509	263.986419758389	0.22075907424
1	2514	264.154616954841	0.388765506893
1	2517	264.322814151293	0.185948892557
1	2537	266.493425059229	0.131549041362
1	2547	266.997641442211	0.141961412804
1	2557	267.465525284916	0.036515679229
1	2573	267.982523030369	0.173947345193
1	2577	268.150720226821	0.211834477847
1	2580	268.318917423273	0.343886826906
1	2583	268.487114619725	0.439862042809
1	2588	268.655311816177	0.075167643205
1	2623	272.207828221298	0.161491046429
1	2638	273.400577353551	0.086251702052
1	2645	273.568774550003	0.165919719643
1	2648	273.736971746455	0.176832820481
1	2678	280.035523676405	0.108325085827
1	2698	282.267963535788	0.081499372897
1	2703	282.43616073224	0.144750594602
1	2724	283.76511916368	0.092425317154
1	2744	286.156959173176	0.098088077695
1	2749	286.325156369628	0.099159100837
1	2759	286.830653705085	0.10955822908
1	2809	291.435645362261	0.040631616691
1	2814	291.603842558713	0.118834406719
1	2844	294.745671347227	0.019593147423
1	2873	297.165867383876	0.064710310342
1	2875	297.334064580328	0.177753352741
1	2880	297.50226177678	0.085817898237
1	2890	298.242219858389	0.156667705339
1	2905	301.625115173979	0.037828316745
1	2910	301.793312370431	0.092935430668
1	2915	301.961509566883	0.140480147851
1	2920	302.129706763335	0.103838457976
1	2982	312.693074946491	0.056891181514
1	2985	312.861272142943	0.197059682817
1	2990	313.029469339395	0.089637133945
1	2997	313.197666535847	0.148904460293
1	3000	313.365863732299	0.275717783807
1	3031	317.560738249284	0.098076123521
1	3041	318.009658565227	0.143573207685
1	3046	318.177855761679	0.072726632785
1	3066	321.853785280435	0.054144195425
1	3073	322.021982476887	0.083436998383
1	3076	322.190179673339	0.19891001644
1	3081	322.358376869791	0.049967496636
1	3096	324.756171259458	0.106473068429
1	3101	324.92436845591	0.088245228976
1	3136	330.11203956439	0.075285997201
1	3161	334.600379196316	0.008795524037
1	3173	336.649613910821	0.20731236704
1	3177	336.817811107273	0.134395855673
1	3182	336.986008303725	0.010486348862
1	3207	339.095567037988	0.017539765839
1	3217	340.077377007978	0.097344522403
1	3227	340.508229238516	0.115538746695
1	3267	345.917183162291	0.02446221715
1	3302	350.614352503274	0.063183569248
1	3324	352.203936179883	0.101930540538
1	3328	352.372133376335	0.105772468332
1	3358	354.814093099815	0.10751769356
1	3365	354.982290296267	0.068708777508
1	3368	355.150487492719	0.210087439976
1	3383	356.387135766587	0.037903155085
1	3398	357.203884116162	0.011378409489
1	3403	357.372081312614	0.089000341571
1	3408	357.540278509066	0.109660109706
1	3448	361.6257274152	0.035839386271
1	3472	363.912147901147	0.141129387006
1	3479	364.183929063375	0.395214135334
1	3481	364.352126259827	0.498682982171
1	3484	364.520323456279	0.499673006324
1	3526	367.623731973656	0.131233064165
1	3529	367.791929170108	0.216430735318
1	3553	369.722988869283	0.111165089071
1	3556	369.891186065735	0.211034471076
1	3559	370.059383262187	0.353074971918
1	3574	370.80843440744	0.161424487523
1	3594	372.12915424812	0.033604358616
1	3599	372.297351444572	0.095118689469
1	3630	374.939894020647	0.24520286517
1	3632	375.108091217099	0.319892677901
1	3635	375.276288413551	0.40990998189
1	3640	375.444485610003	0.13547948394
1	3660	376.987253995891	0.167438898029
1	3705	380.328409548441	0.120533461403
1	3770	388.58069768633	0.062063098912
1	3777	388.852478848558	0.080875759494
1	3806	392.62409024055	0.100327748379
1	3811	392.792287437002	0.053067269413
1	3886	403.452138475289	0.020087021829
1	3916	408.491726570608	0.035168720912
1	3928	411.263255114451	0.127735322706
1	3949	413.116730414669	0.156921772307
1	3952	413.284927611121	0.319374540953
1	3977	417.543170101213	0.08249907909
1	3982	417.711367297665	0.142866528139
1	3997	418.410919714116	0.002808459777
1	4007	419.237179093975	0.036051203636
1	4012	419.405376290427	0.034979455049
1	4022	420.740132544262	0.167560337411
1	4027	420.908329740714	0.021024888954
1	4042	422.811091021643	0.122885524332
1	4057	424.904292859726	0.088383377779
1	4064	425.072490056178	0.032489001251
1	4067	425.24068725263	0.171156122758
1	4079	425.812508673126	0.053171901924
1	4088	426.931944537268	0.026209093912
1	4103	428.366947775673	0.103812509514
1	4138	432.460109235195	0.134487246321
1	4160	433.766328862087	0.125085627829
1	4165	433.934526058539	0.19935643338
1	4170	434.102723254991	0.336086457336
1	4175	434.270920451443	0.293490096747
1	4178	434.439117647895	0.208673216961
1	4193	435.996112706503	0.012751812593
1	4225	443.781684871153	0.101476944221
1	4230	444.053466033381	0.364037025351
1	4284	451.582355514799	0.093455692977
1	4299	453.627647502196	0.006654178283
1	4304	453.795844698648	0.125991737509
1	4319	455.491186322642	0.021713686032
1	4356	459.923243205792	0.131389322278
1	4359	460.091440402244	0.17876775068
1	4371	460.72779529364	0.102056234019
1	4374	460.895992490092	0.21778641046
1	4405	464.612355423893	0.129838062198
1	4415	464.998887828596	0.120831945212
1	4430	467.740786895309	0.070266609984
1	4445	470.14958682699	0.087038263127
1	4460	471.579772212209	0.013169845833
1	4470	471.922905228384	0.162730361443
1	4495	474.896639536195	0.121718373075
1	4532	477.959653947763	0.156816237183
1	4541	478.792446332989	0.012117631439
1	4563	482.001436707059	0.129096860212
1	4568	482.169633903511	0.250941846525
1	4571	482.337831099963	0.271652646466
1	4601	489.524549307381	0.043274690208
1	4611	490.386368817027	0.09629266553
1	4628	492.30150408605	0.102573531738
1	4635	492.469701282502	0.251145267764
1	4640	492.637898478954	0.31295750077
1	4643	492.806095675406	0.393275527453
1	4646	492.974292871858	0.358881186893
1	4651	493.14249006831	0.158769324948
1	4712	499.022354534044	0.111814524707
1	4717	499.190551730496	0.084596226404
1	4732	500.565692886614	0.129118145065
1	4749	501.434360672148	0.160779590705
1	4752	501.6025578686	0.173229118418
1	4777	504.049389997964	0.111482081381
1	4782	504.217587194416	0.047923958446
1	4787	504.385784390868	0.087796633375
1	4807	508.190927528225	0.053701698602
1	4817	510.202058911911	0.083361161801
1	4838	512.195135834014	0.100776744204
1	4878	519.164053505477	0.016624393223
1	4945	527.032092993672	0.107061131649
1	4948	527.200290190124	0.256099675668
1	4955	527.368487386576	0.048736098883
1	4958	527.536684583028	0.190179316996
1	5009	533.461418732797	0.024133345367
1	5019	536.121167188977	0.053813589368
1	5029	536.500730150023	0.124906200037
1	5039	537.228427950496	0.046518417982
1	5059	538.652141920113	0.157107208656
1	5074	540.379595561818	0.000710922472
1	5093	541.159846644622	0.09879760703
1	5096	541.328043841074	0.226965285508
1	5099	541.496241037526	0.379019307892
1	5119	543.166150771289	0.071208810611
1	5131	543.639178922934	0.077654375821
1	5136	543.910960085162	0.308578126931
1	5170	548.740941387714	0.124127793611
1	5195	550.79058385392	0.135719708283
1	5210	552.645340283781	0.149367678946
1	5220	553.851541931191	0.044847908255
1	5325	566.77486671481	0.167761652154
1	5332	566.943063911262	0.212992305024
1	5335	567.111261107714	0.378394981485
1	5338	567.279458304166	0.422927493003
1	5341	567.447655500618	0.506050892761
1	5371	569.920016013497	0.021530742163
1	5381	570.304355416207	0.06989970625
1	5401	571.887965804938	0.027581460635
1	5406	572.05616300139	0.113979577615
1	5413	572.224360197842	0.146784720947
1	5416	572.392557394294	0.17967621141
1	5440	574.787960382195	0.069180222411
1	5442	574.956157578647	0.207942106747
1	5457	576.462034619404	0.140419994093
1	5537	586.921240715119	0.166373925527
1	5577	592.43366683649	0.077652563936
1	5589	593.229364156813	0.202990543774
1	5613	596.726227975162	0.120976079094
1	5618	596.894425171614	0.102373554221
1	5630	597.355534990128	0.045869772362
1	5633	597.52373218658	0.206714615477
1	5653	598.782190500029	0.093663879486
1	5675	600.297609983076	0.146398744416
1	5680	600.465807179528	0.196213665089
1	5683	600.63400437598	0.232791975017
1	5703	602.423554816708	0.115231525242
1	5708	602.59175201316	0.128263137761
1	5718	603.403034679652	0.127407666555
1	5754	606.912152564878	0.158851483695
1	5759	607.08034976133	0.165381895887
1	5784	609.701528577546	0.144718245708
1	5789	609.869725773998	0.11798760005
1	5798	610.03792297045	0.139309572904
1	5803	610.206120166902	0.235536630994
1	5806	610.374317363354	0.350132999295
1	5809	610.542514559806	0.445699283086
1	5874	617.356821476252	0.167384747668
1	5879	617.525018672704	0.112410546861
1	5900	620.781848332189	0.02786085604
1	5905	620.950045528641	0.109805619744
1	5912	621.118242725093	0.045585096751
1	5915	621.286439921545	0.201760215459
1	5955	625.292668694689	0.158321423908
1	5965	625.656175819246	0.118889250753
1	5970	625.824373015698	0.14065412951
1	5990	628.242734789057	0.022972929335
1	6042	635.323255813709	0.082555774639
1	6086	639.385313631778	0.113877684134
1	6096	640.61973137627	0.072285340381
1	6126	643.164101208954	0.15932662957
1	6146	645.441356446443	0.146230737919
1	6156	646.455753981738	0.003326971945
1	6171	647.672266761507	0.105506422759
1	6212	651.686428682697	0.153030816139
1	6229	653.158058174997	0.109090859762
1	6234	653.326255371449	0.237976025302
1	6237	653.494452567901	0.215551410045
1	6242	653.662649764353	0.098028827849
1	6289	657.536055603477	0.139333879685
1	6292	657.704252799929	0.237965063891
1	6327	662.841805791428	0.140112091502
1	6332	663.01000298788	0.126053207343
1	6339	663.178200184332	0.085680968971
1	6346	663.44998134656	0.354339194591
1	6348	663.618178543012	0.421972435289
1	6363	664.615097859612	0.134449380996
1	6368	664.783295056064	0.122813081397
1	6373	664.951492252516	0.078681571015
1	6393	667.868193850107	0.111646816141
1	6544	684.947647395203	0.040919197054
1	6549	685.115844591655	0.039116644807
1	6554	685.284041788107	0.096018193889
1	6599	689.162135494918	0.006443597651
1	6604	689.33033269137	0.02063925452
1	6624	691.399021387451	0.119610330268
1	6634	694.92185864507	0.077061415153
1	6639	695.090055841522	0.07669447913
1	6646	695.36183700375	0.265898194838
1	6660	696.644419985211	0.113128431884
1	6670	697.095107672635	0.124568827226
1	6747	706.895376749608	0.167695949622
1	6752	707.06357394606	0.204470746993
1	6755	707.231771142512	0.227952740649
1	6790	711.30808191189	0.122796228662
1	6797	711.579863074118	0.026351632279
1	6818	713.406626270435	0.153317195993
1	6823	713.574823466887	0.169213333657
1	6828	713.743020663339	0.301605060603
1	6831	713.911217859791	0.173232311038
1	6836	714.079415056243	0.08950314078
1	6841	714.247612252695	0.028438714249
1	6856	717.731931169233	0.063271541333
1	6861	717.900128365685	0.092014364651
1	6866	718.068325562137	0.087226500176
1	6871	718.236522758589	0.057484848026
1	6878	718.404719955041	0.049647196835
1	6881	718.572917151493	0.19851296588
1	6886	718.741114347945	0.020870039404
1	6891	718.909311544397	0.059199814225
1	6906	721.224051082828	0.099754370769
1	6911	721.39224827928	0.081551658141
1	6941	725.02890561996	0.131489026195
1	6950	725.300686782188	0.250241523874
1	6954	725.46888397864	0.209855268565
1	6957	725.637081175092	0.330648665327
1	7002	734.263989227905	0.155731876752
1	7007	734.432186424357	0.135809428773
1	7017	735.119354763563	0.059906525253
1	7032	735.882493486149	0.122316061362
1	7037	736.050690682601	0.120897449429
1	7064	739.356499627227	0.109412233142
1	7067	739.524696823679	0.237330219976
1	7072	739.692894020131	0.111845342882
1	7087	740.881315369551	0.043955218735
1	7110	742.350961780484	0.119820997356
1	7113	742.519158976936	0.182047745057
1	7118	742.687356173388	0.109138023522
1	7223	761.494875119412	0.147563919592
1	7228	761.663072315864	0.029580958052
1	7259	764.37841773898	0.154006611877
1	7284	766.927837165833	0.068889115116
1	7296	767.329007195468	0.10810046605
1	7299	767.49720439192	0.23710320061
1	7364	778.882956620576	0.075732661034
1	7389	783.02977544223	0.062053327676
1	7403	783.664073681477	0.199106786915
1	7407	783.832270877929	0.353151846603
1	7410	784.000468074381	0.239380441745
1	7415	784.168665270833	0.044781931352
1	7455	789.793231488797	0.104378926927
1	7467	790.75897519354	0.123722929523
1	7470	790.927172389992	0.286483965972
1	7480	792.079852597994	0.07550851596
1	7490	792.891198381684	0.058829647696
1	7505	793.953693161496	0.15723782684
1	7525	796.38200198672	0.047970709043
1	7530	796.550199183172	0.152925247884
1	7537	796.718396379624	0.115368721103
1	7542	796.886593576076	0.176963594848
1	7545	797.054790772528	0.192687904931
1	7552	797.326571934756	0.026128005006
1	7571	798.702317049324	0.020443775557
1	7591	801.464563307559	0.013454896903
1	7621	805.124454924665	0.085644538175
1	7626	805.292652121117	0.037613176493
1	7709	816.067658522433	0.065727129424
1	7714	816.235855718885	0.190594724677
1	7717	816.404052915337	0.25944184051
1	7737	819.106847424561	0.071335139113
1	7757	821.282829385541	0.059684180245
1	7762	821.451026581993	0.154118154391
1	7772	822.006495498158	0.048929058324
1	7787	823.227671623367	0.045007127647
1	7797	823.697337472183	0.095043784957
1	7812	824.731262456528	0.160636987833
1	7832	828.058451824808	0.094341153805
1	7847	829.472840159289	0.080959420237
1	7868	832.074573453377	0.096948957312
1	7873	832.242770649829	0.060071212544
1	7878	832.410967846281	0.004363679544
1	7898	833.970650708946	0.125050065933
1	7923	836.28172028722	0.093772645653
1	7928	836.449917483672	0.15473067396
1	7933	836.618114680124	0.042614364653
1	7938	836.786311876576	0.157469131153
1	7943	836.954509073028	0.028375731976
1	7952	837.12270626948	0.151735332309
1	7955	837.290903465932	0.224776443511
1	7958	837.459100662384	0.38022709769
1	8049	851.020993844139	0.026159051433
1	8073	852.443444167833	0.167278798447
1	8078	852.611641364285	0.231583586116
1	8081	852.779838560737	0.37081041136
1	8084	852.948035757189	0.416985355967
1	8118	856.099714762664	0.114008353858
1	8123	856.267911959116	0.235308252819
1	8126	856.436109155568	0.369214854151
1	8129	856.60430635202	0.411047814808
1	8134	856.772503548472	0.116500482886
1	8139	856.940700744924	0.03485621451
1	8149	857.443429441786	0.100604758238
1	8156	857.715210604014	0.223487091634
1	8160	857.883407800466	0.029886667192
1	8190	861.217842830937	0.064822908203
1	8200	862.600423799933	0.032595978899
1	8250	869.081433916664	0.021314313672
1	8260	869.602156111057	0.018087984342
1	8265	869.770353307509	0.14417782925
1	8275	870.659935017585	0.163806549724
1	8295	872.260449242313	0.161133292904
1	8300	872.428646438765	0.072202156954
1	8351	879.815292362983	0.105374536442
1	8482	895.348491796057	0.040179778644
1	8492	895.878500613791	0.121519908388
1	8507	899.108779261456	0.002978798718
1	8532	901.078673325681	0.092525238348
1	8557	903.107870876962	0.163336265915
1	8572	905.237453613235	0.151587130094
1	8577	905.405650809687	0.12632512517
1	8584	905.573848006139	0.092138333272
1	8589	905.742045202591	0.205541955193
1	8594	905.910242399043	0.202898407131
1	8599	906.078439595495	0.199486545043
1	8602	906.246636791947	0.292883042508
1	8611	906.518417954175	0.146308286843
1	8613	906.686615150627	0.31374852766
1	8648	911.073393442633	0.026195166121
1	8660	912.014205944375	0.132333366498
1	8663	912.182403140827	0.203093051354
1	8693	916.113981703392	0.080291390449
1	8703	916.766214505749	0.142398549483
1	8720	917.701158664322	0.018342551648
1	8723	917.869355860774	0.168700368018
1	8740	919.623373937938	0.104698398192
1	8743	919.79157113439	0.250390239675
1	8764	922.257147513344	0.076630346226
1	8774	923.225670525023	0.010524598344
1	8784	924.001141741431	0.046762590805
1	8799	924.961208304733	0.010230903137
1	8831	928.165049771991	0.122393219308
1	8834	928.333246968443	0.264138116074
1	8864	931.553217057771	0.063136128627
1	8874	933.452502513391	0.124720335962
1	8891	934.741346043331	0.123181943959
1	8896	934.909543239783	0.170072980373
1	8899	935.077740436235	0.24874647414
1	8930	938.557586510925	0.114402260232
1	8950	940.022426074573	0.149338758422
1	8965	942.119065850825	0.120967722631
1	9047	950.101008067533	0.136819277168
1	9050	950.269205263985	0.289239585261
1	9055	950.437402460437	0.007391050089
1	9091	954.197034494733	0.127719349697
1	9106	954.949202081976	0.121373683591
1	9113	955.117399278428	0.165495270675
1	9116	955.28559647488	0.283142831613
1	9121	955.453793671332	0.05785741372
1	9141	960.600124562129	0.131318291538
1	9168	964.270042792781	0.154935225112
1	9173	964.438239989233	0.216471368683
1	9178	964.606437185685	0.308013031973
1	9181	964.774634382137	0.19548131007
1	9198	966.275603067416	0.059140365806
1	9201	966.443800263868	0.184949222405
1	9217	970.02251199322	0.079947790054
1	9259	975.831565556992	0.160562665337
1	9262	975.999762753444	0.239996921166
1	9324	982.908617512465	0.081843788568
1	9327	983.076814708917	0.211939764102
1	9332	983.245011905369	0.155629686476
1	9342	983.589680437959	0.049779260789
1	9364	984.514880436631	0.224849913805
1	9368	984.683077633083	0.023911760165
1	9390	987.191398935044	0.080349024632
1	9393	987.359596131496	0.21577273667
1	9398	987.527793327948	0.06061173092
1	9420	990.457526251339	0.13898226654
1	9423	990.625723447791	0.297242861294
1	9428	990.793920644243	0.063520821626
1	9445	992.509894330344	0.163184206591
1	9448	992.678091526796	0.325334614382
1	9458	993.657211598652	0.098264337975
1	9473	994.594465975147	0.035130365804
1	9488	996.562727960134	0.084745148347
1	9493	996.730925156586	0.086526515818
1	9500	996.899122353038	0.078793781861
1	9503	997.06731954949	0.179854885844
1	9515	997.932724949895	0.129909178591
1	9529	999.466267387898	0.144213321517
2	9	0.571849245104	0.168197196452
2	12	0.740046441556	0.311732682217
2	17	0.908243638008	0.442745552915
2	20	1.07644083446	0.238014053451
2	27	1.869115409321	0.168197196452
2	30	2.037312605773	0.253344326014
2	35	2.639613364577	0.168197196452
2	40	2.986197114292	0.168197196452
2	47	3.756035440018	0.168197196452
2	50	3.92423263647	0.188478946916
2	55	4.585900055475	0.168197196452
2	60	4.977537930191	0.168197196452
2	65	5.654143848006	0.168197196452
2	70	6.051474860449	0.168197196452
2	77	7.208529152795	0.168197196452
2	86	7.376726349247	0.208439158304
2	89	7.544923545699	0.276262256192
2	94	7.713120742151	0.397718055968
2	97	7.881317938603	0.519609599454
2	102	8.049515135055	0.387185739425
2	105	8.217712331507	0.255058326159
2	110	8.873101480935	0.168197196452
2	115	10.00569672416	0.168197196452
2	120	10.578728974671	0.168197196452
2	125	10.958794559692	0.168197196452
2	130	11.949557654757	0.168197196452
2	135	13.307368224504	0.168197196452
2	142	13.609794451154	0.168197196452
2	145	13.777991647606	0.175729502295
2	150	14.191793588005	0.168197196452
2	160	15.20656297086	0.168197196452
2	163	15.374760167312	0.33375134494
2	166	15.542957363764	0.490938487384
2	171	16.258037328524	0.168197196452
2	176	16.863594782878	0.168197196452
2	181	17.294826824159	0.168197196452
2	186	18.262309481448	0.168197196452
2	191	19.714607435972	0.168197196452
2	196	20.526565950195	0.168197196452
2	201	21.638392256299	0.168197196452
2	206	22.006290357732	0.168197196452
2	211	22.578953037946	0.168197196452
2	216	24.823551923168	0.168197196452
2	225	25.928787029581	0.168197196452
2	228	26.096984226033	0.325723444948
2	233	26.265181422485	0.386418783404
2	236	26.433378618937	0.17717634089
2	241	27.235558418703	0.168197196452
2	248	28.767098154518	0.168197196452
2	253	28.93529535097	0.324549974847
2	256	29.103492547422	0.293813882341
2	263	30.243498182377	0.168197196452
2	266	30.411695378829	0.207193031579
2	273	30.92567568293	0.168197196452
2	276	31.093872879382	0.281174205994
2	283	31.658582179935	0.168197196452
2	286	31.826779376387	0.227690621205
2	291	33.456331422477	0.168197196452
2	296	35.151533963221	0.168197196452
2	303	35.406802630758	0.168197196452
2	311	35.678583792986	0.420361316448
2	316	35.846780989438	0.399650204391
2	319	36.01497818589	0.554946972421
2	322	36.183175382342	0.385395331585
2	327	36.757155126898	0.168197196452
2	332	36.932384359142	0.168197196452
2	337	37.519086616847	0.168197196452
2	344	37.908915314965	0.168197196452
2	349	38.077112511417	0.239414941264
2	354	38.245309707869	0.234184336058
2	359	38.413506904321	0.233194219623
2	362	38.581704100773	0.266887846794
2	367	39.276156091838	0.168197196452
2	374	39.877468787267	0.168197196452
2	379	40.045665983719	0.283756459773
2	382	40.213863180171	0.23895749529
2	387	43.06488651917	0.168197196452
2	392	43.371928822875	0.168197196452
2	397	44.273945026744	0.168197196452
2	402	44.735110616929	0.168197196452
2	409	45.875123537141	0.168197196452
2	414	46.043320733593	0.277995909592
2	417	46.211517930045	0.185864691263
2	422	46.450650550813	0.168197196452
2	429	47.430088655362	0.168197196452
2	432	47.598285851814	0.184578605899
2	437	48.320734769112	0.168197196452
2	442	48.777154920482	0.168197196452
2	447	49.559825638169	0.168197196452
2	454	50.764638886621	0.168197196452
2	460	51.036420048849	0.29786007668
2	463	51.204617245301	0.366172925103
2	468	53.274409645892	0.168197196452
2	473	55.425196492284	0.168197196452
2	478	56.01609595027	0.168197196452
2	483	56.597294497852	0.168197196452
2	488	57.160878665862	0.168197196452
2	493	57.569227921897	0.168197196452
2	498	58.282447656722	0.168197196452
2	505	59.704604494516	0.168197196452
2	508	59.872801690968	0.318828560431
2	513	60.277830348271	0.168197196452
2	518	60.83004882922	0.168197196452
2	523	61.294081626931	0.168197196452
2	528	61.807072018579	0.168197196452
2	533	62.066835911415	0.168197196452
2	538	62.377601937494	0.168197196452
2	543	62.763586042182	0.168197196452
2	548	64.605235047193	0.168197196452
2	553	66.322694198518	0.168197196452
2	560	67.72692865069	0.168197196452
2	565	67.895125847142	0.308251831493
2	568	68.063323043594	0.325014301967
2	575	69.124215563923	0.168197196452
2	578	69.292412760375	0.331666804147
2	583	70.067871796366	0.168197196452
2	588	71.15398228913	0.168197196452
2	593	72.68279474731	0.168197196452
2	600	73.666814299625	0.168197196452
2	603	73.835011496077	0.335102813896
2	609	76.074159830132	0.168197196452
2	614	77.323558654957	0.168197196452
2	619	77.867045673378	0.168197196452
2	624	78.734954591989	0.168197196452
2	629	79.30610127435	0.168197196452
2	634	79.707064493916	0.168197196452
2	639	80.450355641098	0.168197196452
2	644	81.118020977591	0.168197196452
2	649	81.775731178732	0.168197196452
2	654	83.152439814259	0.168197196452
2	661	83.83942700241	0.168197196452
2	664	84.007624198862	0.192535796127
2	669	84.262059868682	0.168197196452
2	676	86.253166304159	0.168197196452
2	679	86.421363500611	0.202969481001
2	686	86.794748421445	0.168197196452
2	689	86.962945617897	0.315808650918
2	694	87.149274507552	0.168197196452
2	699	87.702737562909	0.168197196452
2	706	88.16151909853	0.168197196452
2	709	88.329716294982	0.283362271404
2	714	88.676052859696	0.168197196452
2	719	88.851810596493	0.168197196452
2	726	89.318598907405	0.168197196452
2	729	89.486796103857	0.316001102445
2	734	91.080665321603	0.168197196452
2	739	93.212513359088	0.168197196452
2	744	93.696187025996	0.168197196452
2	749	94.084980838218	0.168197196452
2	756	94.295154184868	0.168197196452
2	762	94.566935347096	0.290246234649
2	765	94.735132543548	0.355774574345
2	770	96.011037166378	0.168197196452
2	775	97.05843683888	0.168197196452
2	780	101.066058487967	0.168197196452
2	785	101.870493359294	0.168197196452
2	792	102.124959986377	0.168197196452
2	797	102.293157182829	0.248737888419
2	800	102.461354379281	0.312079274373
2	805	102.991297354217	0.168197196452
2	810	103.273256693573	0.168197196452
2	815	103.943194514202	0.168197196452
2	824	104.155374071121	0.168197196452
2	829	104.323571267573	0.281694381679
2	836	104.491768464025	0.34420636589
2	839	104.659965660477	0.42883186275
2	842	104.828162856929	0.423050201321
2	847	104.996360053381	0.581553359933
2	850	105.164557249833	0.276067114629
2	855	105.386364382328	0.168197196452
2	860	105.85404940922	0.168197196452
2	865	106.323152725337	0.168197196452
2	870	106.609140554033	0.168197196452
2	879	107.192777982383	0.168197196452
2	882	107.360975178835	0.229146181799
2	885	107.529172375287	0.347454058953
2	890	108.408637199333	0.168197196452
2	895	109.657703952313	0.168197196452
2	902	109.828520782579	0.168197196452
2	905	109.996717979031	0.326053945311
2	911	110.692320589539	0.168197196452
2	916	111.09243604067	0.168197196452
2	921	112.164862309046	0.168197196452
2	928	112.354191774778	0.168197196452
2	931	112.52238897123	0.218078459731
2	936	112.768288464606	0.168197196452
2	941	113.872122669584	0.168197196452
2	946	114.27317204404	0.168197196452
2	951	114.643412002565	0.168197196452
2	960	116.231019747548	0.168197196452
2	963	116.399216944	0.313717351049
2	968	116.567414140452	0.449625650541
2	973	116.735611336904	0.202040427157
2	976	116.903808533356	0.303231171817
2	981	117.512668839626	0.168197196452
2	986	117.790999096133	0.168197196452
2	995	118.058583133036	0.168197196452
2	1002	118.226780329488	0.267812910204
2	1005	118.39497752594	0.352385770586
2	1010	118.563174722392	0.384267001729
2	1013	118.731371918844	0.521785908459
2	1018	118.899569115296	0.429629182867
2	1023	119.067766311748	0.173133517925
2	1026	119.2359635082	0.208099164986
2	1031	119.593220613038	0.168197196452
2	1036	119.846090090045	0.168197196452
2	1041	120.837957795086	0.168197196452
2	1046	121.539414841924	0.168197196452
2	1051	122.026552291535	0.168197196452
2	1056	122.614760992172	0.168197196452
2	1062	122.8865421544	0.197342092283
2	1069	123.120483696314	0.168197196452
2	1074	123.288680892766	0.288487054122
2	1077	123.456878089218	0.269766244325
2	1082	123.846344383042	0.168197196452
2	1087	125.142833739117	0.168197196452
2	1092	125.665764766063	0.168197196452
2	1097	126.21661281309	0.168197196452
2	1102	126.576322383225	0.168197196452
2	1107	126.925197487054	0.168197196452
2	1112	127.395055924077	0.168197196452
2	1117	127.595302814	0.168197196452
2	1122	127.773189890777	0.168197196452
2	1129	128.008809453512	0.168197196452
2	1134	128.177006649964	0.210386016866
2	1137	128.345203846416	0.298022029526
2	1142	129.697247237991	0.168197196452
2	1147	130.576110164862	0.168197196452
2	1152	131.165941101487	0.168197196452
2	1157	131.578849342311	0.168197196452
2	1162	131.88922373372	0.168197196452
2	1169	132.512964959583	0.168197196452
2	1172	132.681162156035	0.245985773653
2	1181	133.163959523527	0.168197196452
2	1186	133.332156719979	0.227235669762
2	1189	133.500353916431	0.350195914505
2	1192	133.668551112883	0.442821828628
2	1197	133.924592170996	0.168197196452
2	1202	134.212833636437	0.168197196452
2	1207	135.009639133243	0.168197196452
2	1213	135.534107080227	0.168197196452
2	1218	137.476953579715	0.168197196452
2	1223	139.626897352777	0.168197196452
2	1230	141.576357351654	0.168197196452
2	1233	141.744554548106	0.327411203772
2	1238	142.108883771148	0.168197196452
2	1243	142.796097968201	0.168197196452
2	1248	143.012374379966	0.168197196452
2	1253	143.429081128769	0.168197196452
2	1258	143.919396577395	0.168197196452
2	1263	144.159892811883	0.168197196452
2	1268	145.194165286949	0.168197196452
2	1273	145.488715031917	0.168197196452
2	1278	145.84568936262	0.168197196452
2	1283	146.265334515289	0.168197196452
2	1288	147.275890225632	0.168197196452
2	1295	148.609086221299	0.168197196452
2	1298	148.777283417751	0.208898986169
2	1309	149.065172558677	0.168197196452
2	1314	149.233369755129	0.26676941808
2	1317	149.401566951581	0.419376652938
2	1320	149.569764148033	0.542670669886
2	1327	149.737961344485	0.621768710771
2	1330	149.906158540937	0.275866329926
2	1333	150.074355737389	0.411490213285
2	1340	151.156880086676	0.168197196452
2	1345	151.325077283128	0.210447368003
2	1348	151.49327447958	0.200958598599
2	1355	151.702213128761	0.168197196452
2	1358	151.870410325213	0.287134441759
2	1364	153.877735748627	0.168197196452
2	1371	154.417557007178	0.168197196452
2	1376	154.58575420363	0.174284325436
2	1379	154.753951400082	0.191294177306
2	1384	155.277278650154	0.168197196452
2	1391	155.466934033757	0.168197196452
2	1394	155.635131230209	0.286661132276
2	1403	156.561400801448	0.168197196452
2	1408	156.7295979979	0.324036304835
2	1413	156.897795194352	0.463989696762
2	1416	157.065992390804	0.345909494519
2	1419	157.234189587256	0.343218245936
2	1424	157.423019739377	0.168197196452
2	1431	158.607631993849	0.168197196452
2	1434	158.775829190301	0.28240322556
2	1439	159.060463466235	0.168197196452
2	1444	159.267895010769	0.168197196452
2	1449	159.446153113446	0.168197196452
2	1454	159.790493703688	0.168197196452
2	1461	160.761372124725	0.168197196452
2	1466	160.929569321177	0.187982738219
2	1469	161.097766517629	0.18508454294
2	1474	162.720202215723	0.168197196452
2	1479	163.438151345797	0.168197196452
2	1484	164.080584839453	0.168197196452
2	1491	164.556689254374	0.168197196452
2	1494	164.724886450826	0.317756712804
2	1501	165.097392091419	0.168197196452
2	1504	165.265589287871	0.199635775403
2	1509	166.196344616942	0.168197196452
2	1519	166.46812577917	0.172031995017
2	1524	166.636322975622	0.250251702258
2	1527	166.804520172074	0.411292167439
2	1532	166.972717368526	0.39760629445
2	1537	167.140914564978	0.190858523947
2	1540	167.30911176143	0.319454268782
2	1545	167.66911399875	0.168197196452
2	1550	167.996636258002	0.168197196452
2	1557	168.450042739919	0.168197196452
2	1560	168.618239936371	0.291906918173
2	1565	168.905520180342	0.168197196452
2	1570	169.352944654267	0.168197196452
2	1581	169.957020608946	0.168197196452
2	1584	170.125217805398	0.255539218524
2	1587	170.29341500185	0.393740639805
2	1592	170.461612198302	0.522574188706
2	1595	170.629809394754	0.177004401141
2	1600	171.187995721855	0.168197196452
2	1605	172.157509255135	0.168197196452
2	1610	172.414561930737	0.168197196452
2	1617	173.418044475317	0.168197196452
2	1620	173.586241671769	0.322925232413
2	1625	173.855172357945	0.168197196452
2	1630	174.107346852294	0.168197196452
2	1635	174.515610432851	0.168197196452
2	1642	174.730544042008	0.168197196452
2	1651	174.89874123846	0.333948049767
2	1654	175.066938434912	0.317539998565
2	1657	175.235135631364	0.442052398683
2	1660	175.403332827816	0.541770148817
2	1666	176.254510547314	0.168197196452
2	1675	176.66244185381	0.168197196452
2	1678	176.830639050262	0.307449324978
2	1681	176.998836246714	0.35775883959
2	1690	177.322958833127	0.168197196452
2	1693	177.491156029579	0.318149592135
2	1696	177.659353226031	0.342369514992
2	1701	177.892133843617	0.168197196452
2	1708	178.791792544707	0.168197196452
2	1713	178.959989741159	0.330406158715
2	1716	179.128186937611	0.2836000348
2	1721	179.60471884956	0.168197196452
2	1726	180.000593357556	0.168197196452
2	1733	180.481328744201	0.168197196452
2	1738	180.649525940653	0.288508233434
2	1741	180.817723137105	0.202874196156
2	1746	181.060388429308	0.168197196452
2	1751	182.095653180942	0.168197196452
2	1756	183.0191910911	0.168197196452
2	1761	183.648424270245	0.168197196452
2	1766	184.041427991709	0.168197196452
2	1771	184.530217404911	0.168197196452
2	1776	184.701527976475	0.168197196452
2	1781	185.254201445391	0.168197196452
2	1786	185.589874686657	0.168197196452
2	1793	185.901440626443	0.168197196452
2	1796	186.069637822895	0.335470036154
2	1801	186.487275125681	0.168197196452
2	1808	187.50253313812	0.168197196452
2	1811	187.670730334572	0.232261960427
2	1819	187.9425114968	0.257250819289
2	1822	188.110708693252	0.215506531556
2	1827	189.557625567481	0.168197196452
2	1832	190.137015693877	0.168197196452
2	1839	190.614521902928	0.168197196452
2	1842	190.78271909938	0.264820972189
2	1847	192.0753961542	0.168197196452
2	1852	192.474745940376	0.168197196452
2	1857	193.004702725272	0.168197196452
2	1862	194.51083498017	0.168197196452
2	1869	194.890976603592	0.168197196452
2	1872	195.059173800044	0.259453782952
2	1877	195.503025325734	0.168197196452
2	1882	195.72445480658	0.168197196452
2	1889	196.115128899932	0.168197196452
2	1892	196.283326096384	0.1930842099
2	1901	198.799649051965	0.168197196452
2	1904	198.967846248417	0.323296190693
2	1909	199.136043444869	0.479061602916
2	1912	199.304240641321	0.169124370147
2	1917	200.228734271831	0.168197196452
2	1922	200.74041965706	0.168197196452
2	1927	201.454355642973	0.168197196452
2	1932	201.918281219999	0.168197196452
2	1937	202.186351227887	0.168197196452
2	1942	202.407836864074	0.168197196452
2	1947	202.884386497103	0.168197196452
2	1952	204.745720531254	0.168197196452
2	1959	205.229642448124	0.168197196452
2	1962	205.397839644576	0.247167423212
2	1968	205.892015976185	0.168197196452
2	1973	206.901152227445	0.168197196452
2	1980	207.206730698326	0.168197196452
2	1983	207.374927894778	0.256663256766
2	1990	207.595105480401	0.168197196452
2	1993	207.763302676853	0.228949844059
2	1998	209.339955366975	0.168197196452
2	2003	209.704995905974	0.168197196452
2	2008	212.138634659652	0.168197196452
2	2015	212.654605653602	0.168197196452
2	2022	212.822802850054	0.318904080731
2	2025	212.991000046506	0.32883434593
2	2028	213.159197242958	0.414126192599
2	2033	213.4532248949	0.168197196452
2	2038	213.769179855763	0.168197196452
2	2043	214.30006562271	0.168197196452
2	2048	214.661512772068	0.168197196452
2	2055	215.027980663842	0.168197196452
2	2060	215.196177860294	0.20641981265
2	2063	215.364375056746	0.329133479433
2	2070	215.854427246699	0.168197196452
2	2073	216.022624443151	0.270664665074
2	2078	216.560708888646	0.168197196452
2	2083	217.113399873119	0.168197196452
2	2088	217.61925063973	0.168197196452
2	2095	218.00519112874	0.168197196452
2	2098	218.173388325192	0.272468636398
2	2103	218.347271499606	0.168197196452
2	2108	218.866199596498	0.168197196452
2	2113	219.554878195632	0.168197196452
2	2121	219.954544385323	0.168197196452
2	2124	220.122741581775	0.200126427904
2	2129	220.441673652997	0.168197196452
2	2134	220.697029950104	0.168197196452
2	2139	221.365791602355	0.168197196452
2	2146	221.599727215502	0.168197196452
2	2149	221.767924411954	0.304006246548
2	2154	222.180427773506	0.168197196452
2	2161	222.942461340403	0.168197196452
2	2164	223.110658536855	0.260261503377
2	2169	223.783772437324	0.168197196452
2	2174	225.597598768885	0.168197196452
2	2181	226.061126796812	0.168197196452
2	2184	226.229323993264	0.288847848774
2	2189	227.161367175717	0.168197196452
2	2194	227.758397385701	0.168197196452
2	2199	228.514589890113	0.168197196452
2	2204	229.433026526899	0.168197196452
2	2211	230.744344496793	0.168197196452
2	2214	230.912541693245	0.17989149502
2	2219	231.506163118169	0.168197196452
2	2226	232.204879674266	0.168197196452
2	2231	232.373076870718	0.33222764497
2	2236	232.54127406717	0.172690344885
2	2239	232.709471263622	0.260861793581
2	2244	234.419102075321	0.168197196452
2	2249	234.839739568879	0.168197196452
2	2254	235.872003858234	0.168197196452
2	2259	236.86530959853	0.168197196452
2	2264	237.260184589876	0.168197196452
2	2270	238.364641267815	0.168197196452
2	2277	238.661063769358	0.168197196452
2	2280	238.82926096581	0.309041690175
2	2289	239.54517974923	0.168197196452
2	2292	239.713376945682	0.294261657614
2	2295	239.881574142134	0.345775848571
2	2300	240.07819560375	0.168197196452
2	2305	240.477420961236	0.168197196452
2	2310	240.931221701922	0.168197196452
2	2317	242.379305761908	0.168197196452
2	2322	242.54750295836	0.195452337275
2	2325	242.715700154812	0.282543905743
2	2330	243.707704821032	0.168197196452
2	2335	244.561345742745	0.168197196452
2	2340	245.109912396779	0.168197196452
2	2345	245.917639653919	0.168197196452
2	2350	246.183512597436	0.168197196452
2	2355	246.800970316817	0.168197196452
2	2362	247.787228765265	0.168197196452
2	2365	247.955425961717	0.18726672743
2	2372	249.609100954443	0.168197196452
2	2375	249.777298150895	0.264279051657
2	2380	250.080510125575	0.168197196452
2	2385	250.994575025347	0.168197196452
2	2390	251.232569418348	0.168197196452
2	2397	254.7673857577	0.168197196452
2	2402	254.935582954152	0.250032920823
2	2405	255.103780150604	0.278479019501
2	2410	255.754665976396	0.168197196452
2	2415	255.984607900785	0.168197196452
2	2423	256.256389063013	0.211276127211
2	2426	256.424586259465	0.278191910996
2	2431	256.827718500752	0.168197196452
2	2438	257.383463688027	0.168197196452
2	2441	257.551660884479	0.225557151026
2	2446	258.352843371879	0.168197196452
2	2451	259.5174996093	0.168197196452
2	2460	260.104375567141	0.168197196452
2	2463	260.272572763593	0.3302137977
2	2466	260.440769960045	0.491391786532
2	2471	261.512191193606	0.168197196452
2	2478	261.875716024037	0.168197196452
2	2481	262.043913220489	0.20866463848
2	2486	263.202905155398	0.168197196452
2	2491	263.408451915307	0.168197196452
2	2498	263.650025365485	0.168197196452
2	2507	263.818222561937	0.272078672362
2	2510	263.986419758389	0.273571348871
2	2515	264.154616954841	0.388956270692
2	2518	264.322814151293	0.556962703345
2	2521	264.491011347745	0.354146089009
2	2526	265.005258678778	0.168197196452
2	2531	265.925328482052	0.168197196452
2	2538	266.493425059229	0.168197196452
2	2541	266.661622255681	0.299746237814
2	2548	266.997641442211	0.168197196452
2	2551	267.165838638663	0.310158609256
2	2558	267.465525284916	0.168197196452
2	2561	267.633722481368	0.204712875681
2	2568	267.878939064593	0.168197196452
2	2578	268.150720226821	0.342144541645
2	2581	268.318917423273	0.380031674299
2	2584	268.487114619725	0.512084023358
2	2589	268.655311816177	0.608059239261
2	2592	268.823509012629	0.243364839657
2	2597	269.59750560094	0.168197196452
2	2602	270.097603078739	0.168197196452
2	2607	270.442685245785	0.168197196452
2	2612	271.003518459307	0.168197196452
2	2617	271.704212870799	0.168197196452
2	2624	272.207828221298	0.168197196452
2	2627	272.37602541775	0.329688242881
2	2632	272.740476976944	0.168197196452
2	2639	273.400577353551	0.168197196452
2	2646	273.568774550003	0.254448898504
2	2649	273.736971746455	0.334116916095
2	2652	273.905168942907	0.345030016933
2	2657	274.621329264959	0.168197196452
2	2662	276.971159069065	0.168197196452
2	2667	278.61280599099	0.168197196452
2	2672	279.75337645218	0.168197196452
2	2679	280.035523676405	0.168197196452
2	2682	280.203720872857	0.276522282279
2	2687	280.782520556047	0.168197196452
2	2692	281.004343468686	0.168197196452
2	2699	282.267963535788	0.168197196452
2	2704	282.43616073224	0.249696569349
2	2707	282.604357928692	0.312947791054
2	2712	283.158460466513	0.168197196452
2	2717	283.489630842171	0.168197196452
2	2725	283.76511916368	0.168197196452
2	2728	283.933316360132	0.260622513606
2	2733	285.262731376854	0.168197196452
2	2738	285.930609265652	0.168197196452
2	2745	286.156959173176	0.168197196452
2	2750	286.325156369628	0.266285274147
2	2753	286.49335356608	0.267356297289
2	2760	286.830653705085	0.168197196452
2	2763	286.998850901537	0.277755425532
2	2768	287.2718410904	0.168197196452
2	2773	288.371414667956	0.168197196452
2	2778	289.136378206131	0.168197196452
2	2783	289.458156755629	0.168197196452
2	2788	289.692473590533	0.168197196452
2	2793	290.032560063661	0.168197196452
2	2798	290.293877848163	0.168197196452
2	2803	290.890256413706	0.168197196452
2	2810	291.435645362261	0.168197196452
2	2815	291.603842558713	0.208828813143
2	2818	291.772039755165	0.287031603171
2	2823	291.946663393933	0.168197196452
2	2828	292.613523137209	0.168197196452
2	2833	292.873974871428	0.168197196452
2	2838	294.042880581022	0.168197196452
2	2845	294.745671347227	0.168197196452
2	2848	294.913868543679	0.187790343875
2	2853	295.553109659513	0.168197196452
2	2858	296.168859129007	0.168197196452
2	2863	296.686059575699	0.168197196452
2	2868	297.0622834181	0.168197196452
2	2876	297.334064580328	0.232907506794
2	2881	297.50226177678	0.345950549193
2	2884	297.670458973232	0.254015094689
2	2891	298.242219858389	0.168197196452
2	2894	298.410417054841	0.324864901791
2	2899	300.400046504928	0.168197196452
2	2906	301.625115173979	0.168197196452
2	2911	301.793312370431	0.206025513197
2	2916	301.961509566883	0.26113262712
2	2921	302.129706763335	0.308677344303
2	2924	302.297903959787	0.272035654428
2	2929	302.774940499789	0.168197196452
2	2934	304.63343983643	0.168197196452
2	2939	304.803302213706	0.168197196452
2	2944	305.349560789185	0.168197196452
2	2949	305.676212189306	0.168197196452
[...]
8	5654	598.782190500029	0
8	5657	598.950387696481	0
8	5662	599.605337529981	0
8	5667	599.794829428118	0
8	5676	600.297609983076	0
8	5681	600.465807179528	0
8	5684	600.63400437598	0
8	5687	600.802201572432	0
8	5692	601.70268009427	0
8	5697	602.017515931658	0
8	5704	602.423554816708	0
8	5709	602.59175201316	0
8	5712	602.759949209612	0
8	5719	603.403034679652	0
8	5722	603.571231876104	0
8	5727	603.825453212102	0
8	5732	604.98680100561	0
8	5737	605.759513667925	0
8	5743	606.13779248907	0
8	5748	606.501346226609	0
8	5755	606.912152564878	0
8	5760	607.08034976133	0
8	5763	607.248546957782	0
8	5768	607.910804866524	0
8	5773	608.533247582361	0
8	5778	609.101122180895	0
8	5785	609.701528577546	0
8	5790	609.869725773998	0
8	5799	610.03792297045	0
8	5804	610.206120166902	0
8	5807	610.374317363354	0
8	5810	610.542514559806	0
8	5813	610.710711756258	0
8	5818	611.393208946003	0
8	5823	611.725645714575	0
8	5828	612.073901591358	0
8	5833	612.377057637788	0
8	5838	612.76671846704	0
8	5843	613.253639002109	0
8	5848	613.492718887727	0
8	5853	613.909393564925	0
8	5858	614.343575494983	0
8	5863	614.789818269509	0
8	5868	615.390965861244	0
8	5875	617.356821476252	0
8	5880	617.525018672704	0
8	5883	617.693215869156	0
8	5888	618.850261937364	0
8	5894	620.406734032355	0
8	5901	620.781848332189	0
8	5906	620.950045528641	0
8	5913	621.118242725093	0
8	5916	621.286439921545	0
8	5919	621.454637117997	0
8	5924	622.14217585952	0
8	5929	622.642807673606	0
8	5934	622.811368967698	0
8	5939	623.569571141411	0
8	5944	623.912782867966	0
8	5949	624.64707310628	0
8	5956	625.292668694689	0
8	5959	625.460865891141	0
8	5966	625.656175819246	0
8	5971	625.824373015698	0
8	5974	625.99257021215	0
8	5979	626.546829737742	0
8	5984	627.68506320653	0
8	5991	628.242734789057	0
8	5994	628.410931985509	0
8	5999	628.904088711011	0
8	6004	629.535542958097	0
8	6009	630.967948684818	0
8	6014	631.829281923322	0
8	6019	632.803317120085	0
8	6024	633.018416899276	0
8	6029	633.700361838578	0
8	6034	634.229277273585	0
8	6039	635.219671847933	0
8	6045	635.491453010161	0
8	6050	636.1182417984	0
8	6055	636.557573558806	0
8	6060	637.058329743343	0
8	6065	637.318017628679	0
8	6070	638.316913675781	0
8	6075	638.498408163619	0
8	6080	638.913505202033	0
8	6087	639.385313631778	0
8	6090	639.55351082823	0
8	6097	640.61973137627	0
8	6100	640.787928572722	0
8	6105	641.7820079265	0
8	6110	642.118661114114	0
8	6115	642.387810993146	0
8	6120	642.882605912047	0
8	6127	643.164101208954	0
8	6130	643.332298405406	0
8	6135	644.220589318669	0
8	6140	645.177993010587	0
8	6147	645.441356446443	0
8	6150	645.609553642895	0
8	6157	646.455753981738	0
8	6160	646.62395117819	0
8	6165	646.807579726214	0
8	6172	647.672266761507	0
8	6175	647.840463957959	0
8	6180	648.611950557788	0
8	6185	648.981724608582	0
8	6190	649.290142376531	0
8	6196	649.759226995637	0
8	6201	650.590527462331	0
8	6206	651.496331552729	0
8	6213	651.686428682697	0
8	6216	651.854625879149	0
8	6221	652.934671930989	0
8	6230	653.158058174997	0
8	6235	653.326255371449	0
8	6238	653.494452567901	0
8	6243	653.662649764353	0
8	6246	653.830846960805	0
8	6251	654.505253616576	0
8	6256	654.883356207432	0
8	6261	655.161089379962	0
8	6266	655.43391400675	0
8	6271	656.048261154952	0
8	6276	656.419130869127	0
8	6281	656.832787441953	0
8	6290	657.536055603477	0
8	6293	657.704252799929	0
8	6296	657.872449996381	0
8	6301	659.741351933959	0
8	6306	660.196869112705	0
8	6311	660.767014529445	0
8	6316	661.777035633986	0
8	6321	662.661682643875	0
8	6328	662.841805791428	0
8	6333	663.01000298788	0
8	6340	663.178200184332	0
8	6345	663.346397380784	0
8	6349	663.618178543012	0
8	6352	663.786375739464	0
8	6357	663.979427269471	0
8	6364	664.615097859612	0
8	6369	664.783295056064	0
8	6374	664.951492252516	0
8	6377	665.119689448968	0
8	6382	665.316019921376	0
8	6387	666.371323562539	0
8	6394	667.868193850107	0
8	6397	668.036391046559	0
8	6402	668.544834128189	0
8	6407	668.910768649921	0
8	6412	669.603464588117	0
8	6417	670.727102086729	0
8	6422	672.008786093076	0
8	6427	672.184339479821	0
8	6432	672.746690927762	0
8	6437	673.108413003582	0
8	6442	673.833415081052	0
8	6447	674.006118639696	0
8	6452	674.47648146257	0
8	6457	674.737923619096	0
8	6462	676.109281390551	0
8	6467	676.764516445736	0
8	6472	677.160679419759	0
8	6477	677.845554199151	0
8	6482	678.166025089825	0
8	6487	678.764907588432	0
8	6492	680.652330880249	0
8	6498	681.005233862806	0
8	6503	681.729515055314	0
8	6508	682.513544632292	0
8	6513	682.751394808089	0
8	6518	682.971132135342	0
8	6523	683.216245843797	0
8	6528	683.432220503334	0
8	6533	683.945731787273	0
8	6538	684.521061510943	0
8	6545	684.947647395203	0
8	6550	685.115844591655	0
8	6555	685.284041788107	0
8	6558	685.452238984559	0
8	6563	685.904812279068	0
8	6568	686.200085449196	0
8	6573	686.481513105905	0
8	6578	687.121817196498	0
8	6583	687.657767245577	0
8	6588	687.940665911709	0
8	6593	688.344542918329	0
8	6600	689.162135494918	0
8	6605	689.33033269137	0
8	6608	689.498529887822	0
8	6613	690.212919714699	0
8	6618	690.713845659482	0
8	6625	691.399021387451	0
8	6628	691.567218583903	0
8	6635	694.92185864507	0
8	6640	695.090055841522	0
8	6645	695.258253037974	0
8	6649	695.530034200202	0
8	6654	696.082392338346	0
8	6661	696.644419985211	0
8	6664	696.812617181663	0
8	6671	697.095107672635	0
8	6674	697.263304869087	0
8	6679	697.611200444778	0
8	6684	698.235212877219	0
8	6689	698.839485196711	0
8	6694	699.451619163641	0
8	6699	701.055144513419	0
8	6704	701.470433757979	0
8	6709	701.717187928053	0
8	6714	702.520065046847	0
8	6719	703.57719002681	0
8	6724	703.997794678352	0
8	6729	704.237023023805	0
8	6734	705.328720003691	0
8	6739	706.341107252997	0
8	6748	706.895376749608	0
8	6753	707.06357394606	0
8	6756	707.231771142512	0
8	6759	707.399968338964	0
8	6764	707.659184556059	0
8	6769	709.766834806256	0
8	6774	710.136398516505	0
8	6779	710.641030656326	0
8	6784	710.843605430176	0
8	6791	711.30808191189	0
8	6794	711.476279108342	0
8	6800	711.74806027057	0
8	6805	712.988860653524	0
8	6810	713.183224205843	0
8	6819	713.406626270435	0
8	6824	713.574823466887	0
8	6829	713.743020663339	0
8	6832	713.911217859791	0
8	6837	714.079415056243	0
8	6842	714.247612252695	0
8	6845	714.415809449147	0
8	6850	715.367491198568	0
8	6857	717.731931169233	0
8	6862	717.900128365685	0
8	6867	718.068325562137	0
8	6872	718.236522758589	0
8	6879	718.404719955041	0
8	6882	718.572917151493	0
8	6887	718.741114347945	0
8	6892	718.909311544397	0
8	6895	719.077508740849	0
8	6900	720.652203228599	0
8	6907	721.224051082828	0
8	6912	721.39224827928	0
8	6915	721.560445475732	0
8	6920	723.770281878949	0
8	6925	724.006993336245	0
8	6930	724.247163131146	0
8	6935	724.782434678511	0
8	6942	725.02890561996	0
8	6947	725.197102816412	0
8	6955	725.46888397864	0
8	6958	725.637081175092	0
8	6961	725.805278371544	0
8	6966	726.817922814	0
8	6971	727.013437448458	0
8	6976	727.379962792576	0
8	6981	727.996469712585	0
8	6986	728.234094626425	0
8	6991	730.651714378293	0
8	6996	732.754648098492	0
8	7003	734.263989227905	0
8	7008	734.432186424357	0
8	7011	734.600383620809	0
8	7018	735.119354763563	0
8	7021	735.287551960015	0
8	7026	735.540316112014	0
8	7033	735.882493486149	0
8	7038	736.050690682601	0
8	7041	736.218887879053	0
8	7046	737.772794094674	0
8	7051	738.268110706812	0
8	7056	738.601839754208	0
8	7065	739.356499627227	0
8	7068	739.524696823679	0
8	7073	739.692894020131	0
8	7076	739.861091216583	0
8	7081	740.696865710751	0
8	7088	740.881315369551	0
8	7091	741.049512566003	0
8	7096	741.655519799912	0
8	7102	742.025911560929	0
8	7111	742.350961780484	0
8	7114	742.519158976936	0
8	7119	742.687356173388	0
8	7122	742.85555336984	0
8	7127	743.273969645054	0
8	7132	743.874929387818	0
8	7137	744.469638452187	0
8	7142	745.494544284044	0
8	7147	745.832742843609	0
8	7152	747.526772920005	0
8	7157	749.080420102039	0
8	7162	749.348761837876	0
8	7167	750.476342524863	0
8	7172	751.007030630311	0
8	7177	752.083114808668	0
8	7182	752.435945336376	0
8	7187	753.036820028502	0
8	7192	753.304883552419	0
8	7197	753.522608316183	0
8	7202	755.766353614299	0
8	7207	757.377337592935	0
8	7212	759.156640156781	0
8	7217	760.049705450336	0
8	7224	761.494875119412	0
8	7229	761.663072315864	0
8	7232	761.831269512316	0
8	7237	762.070498345921	0
8	7242	762.764296510094	0
8	7247	763.468865137876	0
8	7253	763.749538022436	0
8	7260	764.37841773898	0
8	7263	764.546614935432	0
8	7268	765.015991107448	0
8	7273	765.411852520258	0
8	7278	766.352801789539	0
8	7285	766.927837165833	0
8	7288	767.096034362285	0
8	7297	767.329007195468	0
8	7300	767.49720439192	0
8	7303	767.665401588372	0
8	7308	767.906883665439	0
8	7313	768.379853824589	0
8	7318	772.383127640022	0
8	7323	772.929816499746	0
8	7328	774.454706019194	0
8	7333	775.618259333047	0
8	7338	775.990628098238	0
8	7343	777.034436875386	0
8	7348	777.332632995699	0
8	7353	777.976749893262	0
8	7358	778.331574435292	0
8	7365	778.882956620576	0
8	7368	779.051153817028	0
8	7373	779.545571779164	0
8	7378	781.220670721283	0
8	7383	781.585572524533	0
8	7390	783.02977544223	0
8	7393	783.197972638682	0
8	7402	783.560489715701	0
8	7408	783.832270877929	0
8	7411	784.000468074381	0
8	7416	784.168665270833	0
8	7419	784.336862467285	0
8	7424	784.547923977615	0
8	7429	785.590510650828	0
8	7434	786.799621869826	0
8	7439	787.91614622684	0
8	7444	788.102365913747	0
8	7449	789.305230056903	0
8	7456	789.793231488797	0
8	7459	789.961428685249	0
8	7468	790.75897519354	0
8	7471	790.927172389992	0
8	7474	791.095369586444	0
8	7481	792.079852597994	0
8	7484	792.248049794446	0
8	7491	792.891198381684	0
8	7494	793.059395578136	0
8	7499	793.425650622181	0
8	7506	793.953693161496	0
8	7509	794.121890357948	0
8	7514	794.337891503687	0
8	7519	795.867694909096	0
8	7526	796.38200198672	0
8	7531	796.550199183172	0
8	7538	796.718396379624	0
8	7543	796.886593576076	0
8	7546	797.054790772528	0
8	7549	797.22298796898	0
8	7555	797.494769131208	0
8	7560	797.805926101207	0
8	7565	798.308379354143	0
8	7572	798.702317049324	0
8	7575	798.870514245776	0
8	7580	800.722602391781	0
8	7585	801.240375394318	0
8	7592	801.464563307559	0
8	7595	801.632760504011	0
8	7600	802.488482227366	0
8	7605	802.875228922401	0
8	7610	803.365963648508	0
8	7615	804.164096158757	0
8	7622	805.124454924665	0
8	7627	805.292652121117	0
8	7630	805.460849317569	0
8	7635	805.706119547571	0
8	7640	805.980604830957	0
8	7645	806.413952591102	0
8	7650	808.566176124873	0
8	7655	809.575456277728	0
8	7660	809.775976537675	0
8	7665	810.060293678892	0
8	7670	810.268881773076	0
8	7675	810.62482428055	0
8	7680	811.221000843243	0
8	7685	811.715026062463	0
8	7690	813.025888057327	0
8	7695	814.100353934848	0
8	7700	814.778390992917	0
8	7710	816.067658522433	0
8	7715	816.235855718885	0
8	7718	816.404052915337	0
8	7721	816.572250111789	0
8	7726	816.85488957924	0
8	7731	817.745135985852	0
8	7738	819.106847424561	0
8	7741	819.275044621013	0
8	7746	819.678749649841	0
8	7751	820.353279511696	0
8	7758	821.282829385541	0
8	7763	821.451026581993	0
8	7766	821.619223778445	0
8	7773	822.006495498158	0
8	7776	822.17469269461	0
8	7781	822.663055472271	0
8	7788	823.227671623367	0
8	7791	823.395868819819	0
8	7798	823.697337472183	0
8	7801	823.865534668635	0
8	7806	824.083853970373	0
8	7813	824.731262456528	0
8	7816	824.89945965298	0
8	7821	827.622369641568	0
8	7826	827.808894605377	0
8	7833	828.058451824808	0
8	7836	828.22664902126	0
8	7841	828.599192556412	0
8	7848	829.472840159289	0
8	7851	829.641037355741	0
8	7857	830.960523132704	0
8	7862	831.419090500144	0
8	7869	832.074573453377	0
8	7874	832.242770649829	0
8	7879	832.410967846281	0
8	7882	832.579165042733	0
8	7887	832.838969008755	0
8	7892	833.29078385578	0
8	7899	833.970650708946	0
8	7902	834.138847905398	0
8	7907	835.194401628499	0
8	7912	835.590236259981	0
8	7917	835.897447126209	0
8	7924	836.28172028722	0
8	7929	836.449917483672	0
8	7934	836.618114680124	0
8	7939	836.786311876576	0
8	7944	836.954509073028	0
8	7953	837.12270626948	0
8	7956	837.290903465932	0
8	7959	837.459100662384	0
8	7962	837.627297858836	0
8	7967	839.270680907922	0
8	7972	841.14708161604	0
8	7977	841.561270369745	0
8	7982	843.1015391318	0
8	7987	843.897005497338	0
8	7992	844.688057374114	0
8	7997	845.052185140136	0
8	8002	845.701785658714	0
8	8008	846.356294697339	0
8	8013	846.59609836106	0
8	8018	848.080215290759	0
8	8023	849.005194607203	0
8	8028	849.404271248323	0
8	8033	849.761700619015	0
8	8038	850.05989166421	0
8	8043	850.820354978859	0
8	8050	851.020993844139	0
8	8053	851.189191040591	0
8	8058	851.789461024341	0
8	8063	852.192721629495	0
8	8074	852.443444167833	0
8	8079	852.611641364285	0
8	8082	852.779838560737	0
8	8085	852.948035757189	0
8	8088	853.116232953641	0
8	8093	853.289437518277	0
8	8098	854.174384463233	0
8	8103	854.427478784637	0
8	8108	854.954356342731	0
8	8119	856.099714762664	0
8	8124	856.267911959116	0
8	8127	856.436109155568	0
8	8130	856.60430635202	0
8	8135	856.772503548472	0
8	8140	856.940700744924	0
8	8143	857.108897941376	0
8	8150	857.443429441786	0
8	8155	857.611626638238	0
8	8161	857.883407800466	0
8	8164	858.051604996918	0
8	8169	858.526193236653	0
8	8174	858.825985063195	0
8	8179	859.074434763472	0
8	8184	859.849264425873	0
8	8191	861.217842830937	0
8	8194	861.386040027389	0
8	8201	862.600423799933	0
8	8204	862.768620996385	0
8	8209	863.34810949588	0
8	8214	863.773194235567	0
8	8219	865.190237134448	0
8	8224	865.603197428348	0
8	8229	866.356242371794	0
8	8234	867.341401401697	0
8	8239	868.10260576457	0
8	8244	868.518782903684	0
8	8251	869.081433916664	0
8	8254	869.249631113116	0
8	8261	869.602156111057	0
8	8266	869.770353307509	0
8	8269	869.938550503961	0
8	8276	870.659935017585	0
8	8279	870.828132214037	0
8	8284	871.430345444855	0
8	8289	871.854918521397	0
8	8296	872.260449242313	0
8	8301	872.428646438765	0
8	8304	872.596843635217	0
8	8310	873.991589329212	0
8	8315	874.177399942554	0
8	8320	874.757739145114	0
8	8325	876.435410896605	0
8	8330	876.674608496232	0
8	8335	878.509265777184	0
8	8340	878.699034764779	0
8	8345	879.113824342523	0
8	8352	879.815292362983	0
8	8355	879.983489559435	0
8	8360	880.671037775839	0
8	8365	880.851930150876	0
8	8370	881.391239171907	0
8	8375	881.599222891813	0
8	8380	882.446998532272	0
8	8385	882.737036839354	0
8	8390	883.170521811667	0
8	8395	883.411907438745	0
8	8400	883.937687988808	0
8	8405	884.122790524203	0
8	8410	884.774139916001	0
8	8415	885.621745581009	0
8	8420	886.089701101226	0
8	8425	886.322223028164	0
8	8430	887.3686825843	0
8	8435	888.214939559597	0
8	8440	889.068474152104	0
8	8445	889.613458956707	0
8	8450	890.311661798829	0
8	8455	891.4797065263	0
8	8461	892.119052849209	0
8	8466	892.353495258535	0
8	8471	893.502556220789	0
8	8476	895.121851041811	0
8	8483	895.348491796057	0
8	8486	895.516688992509	0
8	8493	895.878500613791	0
8	8496	896.046697810243	0
8	8501	898.633785824542	0
8	8508	899.108779261456	0
8	8511	899.276976457908	0
8	8516	899.686701205977	0
8	8521	900.010980499452	0
8	8526	900.577748833556	0
8	8533	901.078673325681	0
8	8536	901.246870522133	0
8	8541	901.471777386344	0
8	8546	901.86496739791	0
8	8551	902.84308673722	0
8	8558	903.107870876962	0
8	8561	903.276068073414	0
8	8566	904.918175271277	0
8	8573	905.237453613235	0
8	8578	905.405650809687	0
8	8585	905.573848006139	0
8	8590	905.742045202591	0
8	8595	905.910242399043	0
8	8600	906.078439595495	0
8	8603	906.246636791947	0
8	8610	906.414833988399	0
8	8614	906.686615150627	0
8	8617	906.854812347079	0
8	8622	907.404434658925	0
8	8627	907.650934555873	0
8	8632	908.646273243362	0
8	8637	909.709574717472	0
8	8642	909.954402179453	0
8	8649	911.073393442633	0
8	8652	911.241590639085	0
8	8661	912.014205944375	0
8	8664	912.182403140827	0
8	8667	912.350600337279	0
8	8672	913.018525326019	0
8	8677	914.106636486097	0
8	8682	915.50055225238	0
8	8687	915.813227623003	0
8	8694	916.113981703392	0
8	8697	916.282178899844	0
8	8704	916.766214505749	0
8	8707	916.934411702201	0
8	8712	917.150082461872	0
8	8721	917.701158664322	0
8	8724	917.869355860774	0
8	8727	918.037553057226	0
8	8732	918.333477424667	0
8	8741	919.623373937938	0
8	8744	919.79157113439	0
8	8747	919.959768330842	0
8	8752	920.985531509371	0
8	8757	921.738616358629	0
8	8765	922.257147513344	0
8	8768	922.425344709796	0
8	8775	923.225670525023	0
8	8778	923.393867721475	0
8	8785	924.001141741431	0
8	8788	924.169338937883	0
8	8793	924.493948742367	0
8	8800	924.961208304733	0
8	8803	925.129405501185	0
8	8808	925.465984089769	0
8	8813	926.246739841751	0
8	8818	926.844056538649	0
8	8823	927.046566784327	0
8	8832	928.165049771991	0
8	8835	928.333246968443	0
8	8838	928.501444164895	0
8	8843	929.297516195333	0
8	8848	929.936017128733	0
8	8853	930.476277968634	0
8	8858	930.797910214585	0
8	8865	931.553217057771	0
8	8868	931.721414254223	0
8	8875	933.452502513391	0
8	8878	933.620699709843	0
8	8883	934.288702097416	0
8	8892	934.741346043331	0
8	8897	934.909543239783	0
8	8900	935.077740436235	0
8	8903	935.245937632687	0
8	8908	935.817947566065	0
8	8914	936.649350572441	0
8	8919	936.895921738307	0
8	8924	937.348916135791	0
8	8931	938.557586510925	0
8	8934	938.725783707377	0
8	8939	939.186393430937	0
8	8944	939.816406680148	0
8	8951	940.022426074573	0
8	8954	940.190623271025	0
8	8959	941.721143052894	0
8	8966	942.119065850825	0
8	8969	942.287263047277	0
8	8974	942.594145530219	0
8	8979	942.940852838814	0
8	8984	943.73747607988	0
8	8989	944.09572013281	0
8	8994	944.738622536712	0
8	8999	945.278488813881	0
8	9004	945.849803873573	0
8	9009	946.232173787849	0
8	9014	946.642378703226	0
8	9019	947.017553226024	0
8	9024	947.209000226104	0
8	9029	947.963192021895	0
8	9034	948.23321036102	0
8	9039	949.6723618102	0
8	9048	950.101008067533	0
8	9051	950.269205263985	0
8	9056	950.437402460437	0
8	9059	950.605599656889	0
8	9065	951.113550468697	0
8	9070	951.728084011155	0
8	9075	952.210660320107	0
8	9080	952.478232814634	0
8	9085	953.28280169398	0
8	9092	954.197034494733	0
8	9095	954.365231691185	0
8	9100	954.77447141373	0
8	9107	954.949202081976	0
8	9114	955.117399278428	0
8	9117	955.28559647488	0
8	9122	955.453793671332	0
8	9125	955.621990867784	0
8	9130	955.904732181972	0
8	9135	959.906523286059	0
8	9142	960.600124562129	0
8	9145	960.768321758581	0
8	9150	961.92575991162	0
8	9155	962.14577483638	0
8	9160	963.199816893462	0
8	9169	964.270042792781	0
8	9174	964.438239989233	0
8	9179	964.606437185685	0
8	9182	964.774634382137	0
8	9185	964.942831578589	0
8	9190	965.497646229959	0
8	9199	966.275603067416	0
8	9202	966.443800263868	0
8	9205	966.61199746032	0
8	9210	967.871917762866	0
8	9218	970.02251199322	0
8	9221	970.190709189672	0
8	9226	970.454563956796	0
8	9231	971.634022452516	0
8	9236	971.906704473628	0
8	9241	972.703334807406	0
8	9246	972.970968117163	0
8	9251	973.8655519467	0
8	9260	975.831565556992	0
8	9263	975.999762753444	0
8	9266	976.167959949896	0
8	9271	976.357891258577	0
8	9276	976.729695471067	0
8	9281	977.406642316245	0
8	9286	978.363942645005	0
8	9291	978.664365830059	0
8	9296	979.064559316927	0
8	9301	979.74561240861	0
8	9306	980.219838066571	0
8	9311	981.816869833523	0
8	9316	982.522043842466	0
8	9325	982.908617512465	0
8	9328	983.076814708917	0
8	9333	983.245011905369	0
8	9336	983.413209101821	0
8	9343	983.589680437959	0
8	9346	983.757877634411	0
8	9351	983.944554361792	0
8	9356	984.178774093348	0
8	9363	984.411296470855	0
8	9369	984.683077633083	0
8	9372	984.851274829535	0
8	9377	985.254529581615	0
8	9382	986.551818844986	0
8	9391	987.191398935044	0
8	9394	987.359596131496	0
8	9399	987.527793327948	0
8	9402	987.6959905244	0
8	9407	988.456542276443	0
8	9412	989.60585570153	0
8	9421	990.457526251339	0
8	9424	990.625723447791	0
8	9429	990.793920644243	0
8	9432	990.962117840695	0
8	9437	991.953234094715	0
8	9446	992.509894330344	0
8	9449	992.678091526796	0
8	9452	992.846288723248	0
8	9459	993.657211598652	0
8	9462	993.825408795104	0
8	9467	994.022662368505	0
8	9474	994.594465975147	0
8	9477	994.762663171599	0
8	9482	995.774136003168	0
8	9489	996.562727960134	0
8	9494	996.730925156586	0
8	9501	996.899122353038	0
8	9504	997.06731954949	0
8	9507	997.235516745942	0
8	9514	997.829140984119	0
8	9518	998.100922146347	0
8	9523	998.696415032451	0
8	9530	999.466267387898	0
8	9533	999.63446458435	0

