version 2
run General-366-20240201-11:04:29-40057
attr configname General
attr datetime 20240201-11:04:29
attr experiment General
attr inifile main.ini
attr iterationvars "$0=1.0, $1=1.7, $2=30"
attr iterationvarsf 1.0,1.7,30-
attr measurement "$0=1.0, $1=1.7, $2=30"
attr network Rete
attr processid 40057
attr repetition 6
attr replication #6
attr resultdir results
attr runnumber 366
attr seedset 366
param Rete.lambda 1.0
param Rete.a 0.3s
param Rete.b 1.7s
param Rete.c 0.1s
param Rete.d 0.3s
param Rete.mu 3.0
param Rete.source2.interArrivalTime exponential(1s/lambda)
param Rete.source2.jobServiceTime exponential(1s/mu)
param Rete.source2.deadline uniform(a,b)
param Rete.server2.j 30
param Rete.server2.V uniform(c,d)

vector 0 Rete.passiveQueue queueLength:vector ETV
attr interpolationmode sample-hold
attr title "queue length, vector"
vector 1 Rete.sink lifeTime:vector ETV
attr interpolationmode none
attr title "lifetime of arrived jobs, vector"
attr unit s
vector 2 Rete.sink totalQueueingTime:vector ETV
attr interpolationmode none
attr title "the total time spent in queues by arrived jobs, vector"
attr unit s
vector 3 Rete.sink queuesVisited:vector ETV
attr interpolationmode none
attr title "the total number of queues visited by arrived jobs, vector"
vector 4 Rete.sink totalServiceTime:vector ETV
attr interpolationmode none
attr title "the total time spent  by arrived jobs, vector"
attr unit s
vector 5 Rete.sink totalDelayTime:vector ETV
attr interpolationmode none
attr title "the total time spent in delay nodes by arrived jobs, vector"
attr unit s
vector 6 Rete.sink delaysVisited:vector ETV
attr interpolationmode none
attr title "the total number of delays visited by arrived jobs, vector"
vector 7 Rete.sink generation:vector ETV
attr interpolationmode none
attr title "the generation of the arrived jobs, vector"
vector 8 Rete.passiveQueue queueingTime:vector ETV
attr interpolationmode none
attr title "queueing time at dequeue, vector"
attr unit s
0	0	0	0
0	20	4.103172722579	1
0	21	4.113148861429	0
0	55	12.239052413204	1
0	56	12.261659361957	0
0	125	26.92090124958	1
0	126	26.998245422188	0
0	152	30.866184455899	1
0	153	31.120231290963	0
0	171	33.070049383805	1
0	172	33.125076378837	0
0	191	38.159373424864	1
0	192	38.331474182195	0
0	206	43.374882456367	1
0	207	43.467755367541	0
0	216	46.242354879059	1
0	217	46.347441030198	0
0	246	52.444723259821	1
0	247	52.472711008946	0
0	261	54.751755425797	1
0	262	54.877916141329	0
0	276	55.726946248199	1
0	278	55.752480167529	2
0	279	55.858148930323	1
0	282	56.046394294378	0
0	296	58.175831581741	1
0	297	58.361563917657	0
0	317	60.563712336638	1
0	318	60.61267637687	0
0	402	72.592383516443	1
0	403	72.645082281763	0
0	422	74.755516454182	1
0	423	74.830805185416	0
0	427	74.919074654336	1
0	428	75.019050549471	0
0	437	75.813014271162	1
0	438	75.843161620304	0
0	468	80.693929380033	1
0	470	80.760863276877	2
0	471	80.7924620386	1
0	474	80.980707402655	0
0	503	88.759040537365	1
0	504	88.870244288331	0
0	513	89.924797790058	1
0	514	90.002859672337	0
0	538	95.10853150464	1
0	539	95.149668369975	0
0	598	109.022572974502	1
0	599	109.060895135153	0
0	603	109.19294717512	1
0	606	109.520778248088	0
0	654	118.023306920186	1
0	655	118.043989	0
0	669	119.155830071209	1
0	670	119.253023760814	0
0	684	121.183898191699	1
0	685	121.365628036694	0
0	699	123.997681865178	1
0	700	124.102939928976	0
0	704	124.117621085912	1
0	705	124.291185293031	0
0	739	131.907184104742	1
0	741	132.037055771893	2
0	742	132.078963572874	1
0	745	132.267208936929	0
0	765	134.253712780289	1
0	766	134.339965981209	0
0	860	155.933005109537	1
0	861	155.959522677043	0
0	870	156.850478660409	1
0	871	156.899910851119	0
0	880	162.648554638276	1
0	881	162.684511299733	0
0	916	167.981192053745	1
0	917	168.045082876172	0
0	921	168.211333011345	1
0	922	168.233328240227	0
0	956	172.778636797408	1
0	957	172.857109068658	0
0	971	174.349151515312	1
0	972	174.487314807884	0
0	1021	183.977565187419	1
0	1022	184.159620546526	0
0	1077	195.942237388431	1
0	1078	196.100118369277	0
0	1112	200.547253380343	1
0	1113	200.550683237299	0
0	1142	204.563609695603	1
0	1143	204.621978989117	0
0	1147	204.664390040626	1
0	1148	204.810224353172	0
0	1152	204.89598787002	1
0	1153	204.998469717227	0
0	1172	209.194689637209	1
0	1173	209.363129059832	0
0	1192	212.610755593947	1
0	1193	212.716029597699	0
0	1209	216.631069720903	1
0	1210	216.81027598362	0
0	1223	218.389258041034	1
0	1224	218.46392575234	0
0	1238	219.004635059324	1
0	1239	219.070013392092	0
0	1283	227.40054367595	1
0	1285	227.487684708982	2
0	1286	227.499414156433	1
0	1289	227.687659520488	0
0	1303	229.485414713836	1
0	1304	229.642589296538	0
0	1353	242.593469237432	1
0	1354	242.777947040495	0
0	1360	243.011540104942	1
0	1361	243.23783015343	0
0	1399	253.274543654215	1
0	1400	253.424314879619	0
0	1419	258.073709580227	1
0	1420	258.247229336801	0
0	1434	259.085909980346	1
0	1435	259.227023049889	0
0	1454	264.10893406783	1
0	1456	264.19297938771	2
0	1457	264.237716524819	1
0	1460	264.425961888874	0
0	1474	265.697556493113	1
0	1476	265.720140875765	2
0	1477	265.882933004222	1
0	1480	266.071178368277	0
0	1545	278.02248401428	1
0	1546	278.090908631471	0
0	1590	284.668433747994	1
0	1592	284.791479848348	2
0	1594	284.800494396098	3
0	1595	284.817256782868	2
0	1599	284.85364212668	3
0	1600	285.005502146923	2
0	1603	285.193747510978	1
0	1606	285.381992875033	0
0	1666	300.432082259757	1
0	1667	300.498866429935	0
0	1696	306.271813769956	1
0	1697	306.358515844272	0
0	1701	306.459254198111	1
0	1702	306.546761208327	0
0	1711	308.256681889847	1
0	1712	308.309074497758	0
0	1776	320.398070689158	1
0	1778	320.469664504668	2
0	1779	320.557830979893	1
0	1782	320.746076343948	0
0	1786	320.868497096636	1
0	1787	320.934321708003	0
0	1852	331.519823775339	1
0	1853	331.705659634979	0
0	1862	332.564628840435	1
0	1864	332.585876522656	2
0	1865	332.669544385028	1
0	1869	332.730274126562	2
0	1870	332.857789749083	1
0	1873	333.046035113138	0
0	1887	333.973571522258	1
0	1888	334.014432167414	0
0	1907	340.228259764039	1
0	1908	340.375885326022	0
0	1983	353.295856393809	1
0	1984	353.467000207493	0
0	2008	355.615916831715	1
0	2009	355.653770369561	0
0	2033	359.563041408182	1
0	2034	359.573983325441	0
0	2063	362.915785342209	1
0	2064	362.979692122618	0
0	2108	368.819210305345	1
0	2109	368.854514006589	0
0	2144	373.520392588543	1
0	2145	373.541685873923	0
0	2164	376.545617383943	1
0	2165	376.553959954068	0
0	2174	376.99548518273	1
0	2175	377.047486487279	0
0	2184	378.689618251752	1
0	2185	378.718774709645	0
0	2194	380.518907859649	1
0	2195	380.595546229219	0
0	2350	415.801770017409	1
0	2351	415.912095285809	0
0	2380	422.458006327872	1
0	2381	422.598060731436	0
0	2421	427.837742732609	1
0	2423	427.896152709158	2
0	2425	427.98152176173	3
0	2426	428.025440386766	2
0	2429	428.213685750821	1
0	2432	428.401931114876	0
0	2451	434.775341195486	1
0	2452	434.930472422418	0
0	2471	436.535231753873	1
0	2472	436.569398991978	0
0	2486	442.730552634803	1
0	2487	442.912968320724	0
0	2526	448.051290072628	1
0	2527	448.188224681021	0
0	2551	451.531098548631	1
0	2552	451.673585819204	0
0	2568	455.171519904653	1
0	2569	455.386151746592	0
0	2587	459.837131333994	1
0	2588	460.009772456619	0
0	2597	460.808936249456	1
0	2598	460.973567460499	0
0	2642	472.19801198975	1
0	2643	472.380449812653	0
0	2667	479.834773876495	1
0	2668	479.953401375024	0
0	2733	495.88894965769	1
0	2734	495.969390296175	0
0	2743	497.288234876945	1
0	2744	497.314665761255	0
0	2758	498.989675294434	1
0	2760	499.128782622055	2
0	2761	499.177909067647	1
0	2764	499.366154431702	0
0	2818	509.082436653695	1
0	2819	509.144399840177	0
0	2858	520.305804492125	1
0	2859	520.4575246678	0
0	2863	520.472054746929	1
0	2864	520.645770031855	0
0	2879	525.461691093945	1
0	2880	525.490056477939	0
0	2894	528.076560931472	1
0	2895	528.246265899762	0
0	2904	529.392611944643	1
0	2905	529.440747093625	0
0	2929	535.4473225652	1
0	2930	535.472217779721	0
0	2949	538.632214626229	1
0	2950	538.668168210351	0
0	3004	551.496339152527	1
0	3005	551.670728647806	0
0	3009	551.828556801246	1
0	3010	551.858974011861	0
0	3021	553.384206903503	1
0	3022	553.392035550598	0
0	3035	555.798824993553	1
0	3037	555.868488052075	2
0	3038	555.898669411708	1
0	3042	555.955814227624	2
0	3043	556.086914775763	1
0	3046	556.275160139818	0
0	3130	570.785190620178	1
0	3131	570.821010611437	0
0	3160	574.701004483058	1
0	3161	574.745417126706	0
0	3191	577.17396376875	1
0	3192	577.210460956698	0
0	3211	579.478727575229	1
0	3212	579.657940461769	0
0	3261	588.17563927986	1
0	3262	588.298613718614	0
0	3271	589.388955986732	1
0	3272	589.428957526228	0
0	3316	596.381528028621	1
0	3317	596.54600879948	0
0	3321	596.594157244577	1
0	3324	597.005891912415	0
0	3332	598.71317605224	1
0	3333	598.800477252892	0
0	3367	601.976671561456	1
0	3368	602.056514463596	0
0	3377	607.100108651498	1
0	3378	607.134695282475	0
0	3467	633.690673097703	1
0	3468	633.819481506532	0
0	3493	640.383007047042	1
0	3495	640.520168982392	2
0	3496	640.521523311856	1
0	3499	640.709768675911	0
0	3538	643.253201650977	1
0	3539	643.34091088647	0
0	3548	646.161002781028	1
0	3549	646.297791716927	0
0	3558	646.916000305743	1
0	3559	646.922145110056	0
0	3625	671.694915881984	1
0	3626	671.739177259051	0
0	3629	671.909635063115	1
0	3630	671.927422623106	0
0	3654	675.287547942299	1
0	3655	675.292179195586	0
0	3689	685.167298122329	1
0	3690	685.178449754481	0
0	3694	685.253482944841	1
0	3695	685.366695118536	0
0	3709	686.454772030235	1
0	3710	686.524388801159	0
0	3719	688.9297672375	1
0	3720	688.978035776856	0
0	3769	699.070398609532	1
0	3770	699.076077735778	0
0	3776	699.499913206406	1
0	3777	699.535960848713	0
0	3860	714.759348996182	1
0	3861	714.864356500647	0
0	3890	722.819528641649	1
0	3891	722.86465752516	0
0	3927	728.122806413773	1
0	3928	728.182972329254	0
0	3941	729.727039796325	1
0	3942	729.771374154451	0
0	3991	744.05266459386	1
0	3992	744.22974246126	0
0	4082	770.364831254166	1
0	4084	770.454917582031	2
0	4085	770.475898521321	1
0	4088	770.664143885376	0
0	4132	780.088392940698	1
0	4133	780.138862045879	0
0	4142	781.073940059741	1
0	4143	781.125139324344	0
0	4207	794.452579599357	1
0	4209	794.482376169142	2
0	4210	794.611164952643	1
0	4213	794.799410316698	0
0	4227	796.303852635452	1
0	4230	796.743343097117	0
0	4238	797.573884255493	1
0	4239	797.68050224406	0
0	4263	801.036524728805	1
0	4264	801.211781309392	0
0	4338	818.857344071128	1
0	4339	818.93899942942	0
0	4353	823.497526649268	1
0	4354	823.588224877641	0
0	4389	829.849291769564	1
0	4390	829.866957107662	0
0	4419	837.163962118252	1
0	4420	837.341296537318	0
0	4479	849.932307972297	1
0	4481	849.940233313208	2
0	4482	850.113591212818	1
0	4485	850.301836576873	0
0	4489	850.441115274619	1
0	4490	850.490081940928	0
0	4509	853.681544710853	1
0	4510	853.705345925544	0
0	4519	854.355838510457	1
0	4520	854.521449234292	0
0	4535	855.734281667813	1
0	4536	855.751379248706	0
0	4595	872.365118964212	1
0	4596	872.436422079128	0
0	4620	879.474182187879	1
0	4621	879.536584830284	0
0	4625	879.660204772325	1
0	4626	879.724830194339	0
0	4635	880.100447820482	1
0	4637	880.106782114687	2
0	4638	880.178184733808	1
0	4641	880.366430097863	0
0	4670	883.871238690374	1
0	4671	883.871488890064	0
0	4781	905.926678543926	1
0	4782	906.095041793158	0
0	4791	909.137417158611	1
0	4792	909.298922382272	0
0	4867	925.034308182728	1
0	4868	925.199055532667	0
0	4882	927.195123047643	1
0	4883	927.208534428505	0
0	4897	929.341671294075	1
0	4898	929.426466742678	0
0	4912	931.550581086819	1
0	4913	931.678595307862	0
0	4927	933.946222786724	1
0	4928	934.121597070986	0
0	4937	934.793827735279	1
0	4938	934.954272360036	0
0	4972	942.59576196944	1
0	4973	942.629897408406	0
0	5063	962.585054845506	1
0	5064	962.699898100168	0
0	5149	980.739977834763	1
0	5150	980.790149441345	0
0	5199	987.561361965424	1
0	5200	987.743727901885	0
0	5204	987.880193527278	1
0	5205	987.93197326594	0
0	5229	994.133649204388	1
0	5230	994.303484738819	0
1	5	0.299000992312	0.188245364055
1	10	1.359633115803	0.188245364055
1	15	2.025044418069	0.188245364055
1	22	4.113148861429	0.188245364055
1	25	4.301394225484	0.198221502905
1	30	6.660595479672	0.188245364055
1	35	6.97656578443	0.188245364055
1	40	10.34571017723	0.188245364055
1	45	10.677191963254	0.188245364055
1	50	11.510962970817	0.188245364055
1	57	12.261659361957	0.188245364055
1	60	12.449904726012	0.210852312808
1	65	14.114922541914	0.188245364055
1	70	14.3584612946	0.188245364055
1	75	14.583932986306	0.188245364055
1	80	15.504887433379	0.188245364055
1	85	16.460203460437	0.188245364055
1	90	16.983557686625	0.188245364055
1	95	17.860808675981	0.188245364055
1	100	18.09453272805	0.188245364055
1	105	18.850014662942	0.188245364055
1	110	19.192943358916	0.188245364055
1	115	19.536970419661	0.188245364055
1	120	26.50621360316	0.188245364055
1	127	26.998245422188	0.188245364055
1	130	27.186490786243	0.265589536663
1	135	27.496132922008	0.188245364055
1	140	28.922720154839	0.188245364055
1	145	29.539840954756	0.188245364055
1	150	30.848593542083	0.188245364055
1	156	31.308476655018	0.442292199119
1	161	32.026967106113	0.188245364055
1	166	32.473695978559	0.188245364055
1	173	33.125076378837	0.188245364055
1	176	33.313321742892	0.243272359087
1	181	35.29946375122	0.188245364055
1	186	37.982152193368	0.188245364055
1	193	38.331474182195	0.188245364055
1	196	38.51971954625	0.360346121386
1	201	42.70384685675	0.188245364055
1	208	43.467755367541	0.188245364055
1	211	43.656000731596	0.281118275229
1	218	46.347441030198	0.188245364055
1	221	46.535686394253	0.293331515194
1	226	48.456553129432	0.188245364055
1	231	50.691727261732	0.188245364055
1	236	51.266216895185	0.188245364055
1	241	51.984014433155	0.188245364055
1	248	52.472711008946	0.188245364055
1	251	52.660956373001	0.21623311318
1	256	53.187355393552	0.188245364055
1	263	54.877916141329	0.188245364055
1	266	55.066161505384	0.314406079587
1	271	55.554217277171	0.188245364055
1	280	55.858148930323	0.188245364055
1	283	56.046394294378	0.319448046179
1	286	56.234639658433	0.482159490904
1	291	57.447000470359	0.188245364055
1	298	58.361563917657	0.188245364055
1	301	58.549809281712	0.373977699971
1	307	59.518348375567	0.188245364055
1	312	60.26578934438	0.188245364055
1	319	60.61267637687	0.188245364055
1	322	60.800921740925	0.237209404287
1	327	62.196439701747	0.188245364055
1	332	63.10403383511	0.188245364055
1	337	63.821481394756	0.188245364055
1	342	64.704017692755	0.188245364055
1	347	64.988092200473	0.188245364055
1	352	65.53779903575	0.188245364055
1	357	66.006297823902	0.188245364055
1	362	67.558124201865	0.188245364055
1	367	69.230164876227	0.188245364055
1	372	70.409706988291	0.188245364055
1	377	70.667005989973	0.188245364055
1	382	71.152549690054	0.188245364055
1	387	71.727755476714	0.188245364055
1	392	71.948641239016	0.188245364055
1	397	72.449098686072	0.188245364055
1	404	72.645082281763	0.188245364055
1	407	72.833327645818	0.240944129375
1	412	74.180056404653	0.188245364055
1	417	74.629880878114	0.188245364055
1	424	74.830805185416	0.188245364055
1	429	75.019050549471	0.263534095289
1	432	75.207295913526	0.28822125919
1	439	75.843161620304	0.188245364055
1	442	76.031406984359	0.218392713197
1	447	76.835261773746	0.188245364055
1	452	78.245618760187	0.188245364055
1	458	79.368466908243	0.188245364055
1	463	80.27725578717	0.188245364055
1	472	80.7924620386	0.188245364055
1	475	80.980707402655	0.286778022622
1	478	81.16895276671	0.408089489833
1	483	82.131898693638	0.188245364055
1	488	82.748107909794	0.188245364055
1	493	84.513105946442	0.188245364055
1	498	86.518076083358	0.188245364055
1	505	88.870244288331	0.188245364055
1	508	89.058489652386	0.299449115021
1	515	90.002859672337	0.188245364055
1	518	90.191105036392	0.266307246334
1	523	90.589253226441	0.188245364055
1	528	92.101830350007	0.188245364055
1	533	94.438154083372	0.188245364055
1	540	95.149668369975	0.188245364055
1	543	95.33791373403	0.22938222939
1	548	96.184790539426	0.188245364055
1	553	97.106727920597	0.188245364055
1	558	100.247012850808	0.188245364055
1	563	101.049138129207	0.188245364055
1	568	101.463549391494	0.188245364055
1	573	105.338987413898	0.188245364055
1	578	105.846609469736	0.188245364055
1	583	106.493587707694	0.188245364055
1	588	107.928433280157	0.188245364055
1	593	108.425459300257	0.188245364055
1	600	109.060895135153	0.188245364055
1	605	109.249140499208	0.226567524706
1	609	109.709023612143	0.516076437023
1	614	110.76892179443	0.188245364055
1	619	111.064100790359	0.188245364055
1	624	111.459328243773	0.188245364055
1	629	112.365003453729	0.188245364055
1	634	113.747847581664	0.188245364055
1	639	114.796991659578	0.188245364055
1	644	115.57785846963	0.188245364055
1	649	116.374629941001	0.188245364055
1	656	118.043989	0.188245364055
1	659	118.232234364055	0.208927443869
1	664	118.874637789583	0.188245364055
1	671	119.253023760814	0.188245364055
1	674	119.441269124869	0.28543905366
1	679	120.554319756736	0.188245364055
1	686	121.365628036694	0.188245364055
1	689	121.553873400749	0.36997520905
1	694	123.191750749632	0.188245364055
1	701	124.102939928976	0.188245364055
1	706	124.291185293031	0.293503427853
1	709	124.479430657086	0.361809571174
1	714	124.747972004329	0.188245364055
1	719	128.85266839134	0.188245364055
1	724	130.228854906092	0.188245364055
1	729	130.934491070949	0.188245364055
1	734	131.691930092496	0.188245364055
1	743	132.078963572874	0.188245364055
1	746	132.267208936929	0.360024832187
1	749	132.455454300984	0.418398529091
1	754	133.120915611834	0.188245364055
1	760	133.758106086359	0.188245364055
1	767	134.339965981209	0.188245364055
1	770	134.528211345264	0.274498564975
1	775	134.924393151925	0.188245364055
1	780	135.660757183378	0.188245364055
1	785	136.156835906133	0.188245364055
1	790	139.554095031253	0.188245364055
1	795	140.513382255841	0.188245364055
1	800	141.089989523475	0.188245364055
1	805	143.303378052363	0.188245364055
1	810	143.910511046	0.188245364055
1	815	144.227275447437	0.188245364055
1	820	145.362727057164	0.188245364055
1	825	146.190261996791	0.188245364055
1	830	150.68237188567	0.188245364055
1	835	152.489605553893	0.188245364055
1	840	154.285260979501	0.188245364055
1	845	154.891061860013	0.188245364055
1	850	155.171205833049	0.188245364055
1	855	155.769739832004	0.188245364055
1	862	155.959522677043	0.188245364055
1	865	156.147768041098	0.214762931561
1	872	156.899910851119	0.188245364055
1	875	157.088156215174	0.237677554765
1	882	162.684511299733	0.188245364055
1	885	162.872756663788	0.224202025512
1	890	163.29170166397	0.188245364055
1	895	163.978127245232	0.188245364055
1	900	165.59108392588	0.188245364055
1	905	166.522026986383	0.188245364055
1	911	167.709467267517	0.188245364055
1	918	168.045082876172	0.188245364055
1	923	168.233328240227	0.252136186482
1	926	168.421573604282	0.210240592937
1	931	168.947827889013	0.188245364055
1	936	169.717374171085	0.188245364055
1	941	170.698336245104	0.188245364055
1	946	170.907065401575	0.188245364055
1	951	172.207110241984	0.188245364055
1	958	172.857109068658	0.188245364055
1	961	173.045354432713	0.266717635305
1	966	173.835055708248	0.188245364055
1	973	174.487314807884	0.188245364055
1	976	174.675560171939	0.326408656627
1	981	175.176852095444	0.188245364055
1	986	175.954367403175	0.188245364055
1	991	176.788157767562	0.188245364055
1	996	178.921868726079	0.188245364055
1	1001	180.001327064447	0.188245364055
1	1006	181.386317819598	0.188245364055
1	1011	181.692938490801	0.188245364055
1	1016	183.215918577839	0.188245364055
1	1023	184.159620546526	0.188245364055
1	1026	184.347865910581	0.370300723162
1	1031	188.239476236092	0.188245364055
1	1036	188.61325086395	0.188245364055
1	1041	189.974391126982	0.188245364055
1	1046	191.322157855452	0.188245364055
1	1051	192.549068311654	0.188245364055
1	1056	192.796477707231	0.188245364055
1	1062	193.790684439636	0.188245364055
1	1067	195.07459307428	0.188245364055
1	1072	195.391353031984	0.188245364055
1	1079	196.100118369277	0.188245364055
1	1082	196.288363733332	0.346126344901
1	1087	196.533007829032	0.188245364055
1	1092	196.97219154341	0.188245364055
1	1097	197.203804398829	0.188245364055
1	1102	197.510027360159	0.188245364055
1	1107	198.099746877464	0.188245364055
1	1114	200.550683237299	0.188245364055
1	1117	200.738928601354	0.191675221011
1	1122	200.944861573682	0.188245364055
1	1127	201.359850926471	0.188245364055
1	1132	202.307696861091	0.188245364055
1	1137	203.307296549949	0.188245364055
1	1144	204.621978989117	0.188245364055
1	1149	204.810224353172	0.246614657569
1	1154	204.998469717227	0.334079676601
1	1157	205.186715081282	0.290727211262
1	1162	207.374985852593	0.188245364055
1	1167	208.752828900092	0.188245364055
1	1174	209.363129059832	0.188245364055
1	1177	209.551374423887	0.356684786678
1	1182	210.918778227069	0.188245364055
1	1187	212.485571330005	0.188245364055
1	1194	212.716029597699	0.188245364055
1	1197	212.904274961754	0.293519367807
1	1202	214.991942522787	0.188245364055
1	1207	216.53863823474	0.188245364055
1	1213	216.998521347675	0.367451626772
1	1218	218.068202768938	0.188245364055
1	1225	218.46392575234	0.188245364055
1	1228	218.652171116395	0.262913075361
1	1233	218.845243905486	0.188245364055
1	1240	219.070013392092	0.188245364055
1	1243	219.258258756147	0.253623696823
1	1248	219.773912510205	0.188245364055
1	1253	220.537923508451	0.188245364055
1	1258	221.000058179697	0.188245364055
1	1263	222.314423017464	0.188245364055
1	1268	222.646390111219	0.188245364055
1	1273	225.133276416247	0.188245364055
1	1278	225.632195924647	0.188245364055
1	1287	227.499414156433	0.188245364055
1	1290	227.687659520488	0.287115844538
1	1293	227.875904884543	0.388220175561
1	1298	228.299827668056	0.188245364055
1	1305	229.642589296538	0.188245364055
1	1308	229.830834660593	0.345419946757
1	1313	230.717685047425	0.188245364055
1	1318	231.394991609655	0.188245364055
1	1323	232.810755446948	0.188245364055
1	1328	234.041212129123	0.188245364055
1	1333	234.593965742284	0.188245364055
1	1338	237.979032691019	0.188245364055
1	1343	238.196667781231	0.188245364055
1	1348	238.880935855452	0.188245364055
1	1355	242.777947040495	0.188245364055
1	1358	242.96619240455	0.372723167118
1	1364	243.426075517485	0.414535412543
1	1369	244.303939727668	0.188245364055
1	1374	246.033642778121	0.188245364055
1	1379	246.568168627164	0.188245364055
1	1384	248.286628433402	0.188245364055
1	1389	249.16526456289	0.188245364055
1	1394	252.453716780718	0.188245364055
1	1401	253.424314879619	0.188245364055
1	1404	253.612560243674	0.338016589459
1	1409	254.671065910041	0.188245364055
1	1414	255.157307249001	0.188245364055
1	1421	258.247229336801	0.188245364055
1	1424	258.435474700856	0.361765120629
1	1429	258.647316041554	0.188245364055
1	1436	259.227023049889	0.188245364055
1	1439	259.415268413944	0.329358433598
1	1444	260.416644003425	0.188245364055
1	1449	263.804295350384	0.188245364055
1	1458	264.237716524819	0.188245364055
1	1461	264.425961888874	0.317027821044
1	1464	264.614207252929	0.421227865219
1	1469	264.810226678065	0.188245364055
1	1478	265.882933004222	0.188245364055
1	1481	266.071178368277	0.373621875164
1	1484	266.259423732332	0.539282856567
1	1489	267.451421928114	0.188245364055
1	1494	267.800699484161	0.188245364055
1	1499	268.693077801424	0.188245364055
1	1504	270.305424523814	0.188245364055
1	1509	270.857842282392	0.188245364055
1	1515	273.762807517653	0.188245364055
1	1520	274.355853698593	0.188245364055
1	1525	274.975470794558	0.188245364055
1	1530	275.846268057944	0.188245364055
1	1535	276.649581175271	0.188245364055
1	1540	277.757543336893	0.188245364055
1	1547	278.090908631471	0.188245364055
1	1550	278.279153995526	0.256669981246
1	1555	278.963760516338	0.188245364055
1	1560	279.166620155877	0.188245364055
1	1565	279.653637555404	0.188245364055
1	1570	279.990614614259	0.188245364055
1	1575	280.315595920165	0.188245364055
1	1580	281.204770059999	0.188245364055
1	1585	282.443663340049	0.188245364055
1	1596	284.817256782868	0.188245364055
1	1601	285.005502146923	0.337068398929
1	1604	285.193747510978	0.40226766263
1	1607	285.381992875033	0.581498478935
1	1610	285.570238239088	0.716596112408
1	1615	286.685587686081	0.188245364055
1	1620	287.619988409173	0.188245364055
1	1625	288.146302715781	0.188245364055
1	1630	288.744844874184	0.188245364055
1	1635	293.573683793182	0.188245364055
1	1640	294.085917970084	0.188245364055
1	1645	294.804494511408	0.188245364055
1	1650	295.455972843011	0.188245364055
1	1655	297.418775629515	0.188245364055
1	1660	298.43677502227	0.188245364055
1	1668	300.498866429935	0.188245364055
1	1671	300.68711179399	0.255029534233
1	1676	301.828771649033	0.188245364055
1	1681	302.406719825769	0.188245364055
1	1686	304.820884051921	0.188245364055
1	1691	305.556826219812	0.188245364055
1	1698	306.358515844272	0.188245364055
1	1703	306.546761208327	0.274947438371
1	1706	306.735006572382	0.275752374271
1	1713	308.309074497758	0.188245364055
1	1716	308.497319861813	0.240637971966
1	1721	309.304213700632	0.188245364055
1	1726	310.214317583934	0.188245364055
1	1731	311.017911127592	0.188245364055
1	1736	313.03479484374	0.188245364055
1	1741	313.386405575754	0.188245364055
1	1746	314.557299124383	0.188245364055
1	1751	316.612850780932	0.188245364055
1	1756	317.694540901042	0.188245364055
1	1761	317.886431272558	0.188245364055
1	1766	319.275094045784	0.188245364055
1	1771	319.480841069434	0.188245364055
1	1780	320.557830979893	0.188245364055
1	1783	320.746076343948	0.34800565479
1	1788	320.934321708003	0.464657203335
1	1791	321.122567072058	0.254069975422
1	1796	322.114652700286	0.188245364055
1	1801	322.346839197182	0.188245364055
1	1806	323.249995014193	0.188245364055
1	1811	323.643535832826	0.188245364055
1	1817	324.365210001406	0.188245364055
1	1822	325.023120603661	0.188245364055
1	1827	325.302694405134	0.188245364055
1	1832	326.34994708587	0.188245364055
1	1837	327.171189784696	0.188245364055
1	1842	328.296482151107	0.188245364055
1	1847	329.446656426478	0.188245364055
1	1854	331.705659634979	0.188245364055
1	1857	331.893904999034	0.374081223695
1	1866	332.669544385028	0.188245364055
1	1871	332.857789749083	0.293160908648
1	1874	333.046035113138	0.460158590482
1	1877	333.234280477193	0.504006350631
1	1882	333.623319926206	0.188245364055
1	1889	334.014432167414	0.188245364055
1	1892	334.202677531469	0.229106009211
1	1897	339.117014892314	0.188245364055
1	1902	339.961391178786	0.188245364055
1	1909	340.375885326022	0.188245364055
1	1912	340.564130690077	0.335870926038
1	1917	341.206423875055	0.188245364055
1	1922	342.658906638047	0.188245364055
1	1927	343.592632423061	0.188245364055
1	1932	344.510081759821	0.188245364055
1	1937	344.938693108434	0.188245364055
1	1942	345.151540304795	0.188245364055
1	1947	345.880011877157	0.188245364055
1	1952	347.598934384842	0.188245364055
1	1957	348.251643399503	0.188245364055
1	1962	348.580856044905	0.188245364055
1	1968	349.12598719513	0.188245364055
1	1973	350.634248327003	0.188245364055
1	1978	351.183080413359	0.188245364055
1	1985	353.467000207493	0.188245364055
1	1988	353.655245571548	0.359389177739
1	1993	354.297097561172	0.188245364055
1	1998	354.503969601714	0.188245364055
1	2003	354.740559604473	0.188245364055
1	2010	355.653770369561	0.188245364055
1	2013	355.842015733616	0.226098901901
1	2018	357.155965458033	0.188245364055
1	2023	357.877916619759	0.188245364055
1	2028	358.508886629734	0.188245364055
1	2035	359.573983325441	0.188245364055
1	2038	359.762228689496	0.199187281314
1	2043	360.116668895104	0.188245364055
1	2048	361.138885547056	0.188245364055
1	2053	361.385418900671	0.188245364055
1	2058	361.643287182003	0.188245364055
1	2065	362.979692122618	0.188245364055
1	2068	363.167937486673	0.252152144464
1	2073	364.042035146858	0.188245364055
1	2078	365.228332947164	0.188245364055
1	2083	365.996463683879	0.188245364055
1	2088	366.226725659119	0.188245364055
1	2093	366.787465732551	0.188245364055
1	2098	367.70103942714	0.188245364055
1	2103	368.293548274042	0.188245364055
1	2110	368.854514006589	0.188245364055
1	2113	369.042759370644	0.223549065299
1	2119	369.569945938746	0.188245364055
1	2124	370.819336148426	0.188245364055
1	2129	371.074951137282	0.188245364055
1	2134	371.34569848303	0.188245364055
1	2139	371.992319746012	0.188245364055
1	2146	373.541685873923	0.188245364055
1	2149	373.729931237978	0.209538649435
1	2154	375.246515891204	0.188245364055
1	2159	376.025757508239	0.188245364055
1	2166	376.553959954068	0.188245364055
1	2169	376.742205318123	0.19658793418
1	2176	377.047486487279	0.188245364055
1	2179	377.235731851334	0.240246668604
1	2186	378.718774709645	0.188245364055
1	2189	378.9070200737	0.217401821948
1	2196	380.595546229219	0.188245364055
1	2199	380.783791593274	0.264883733625
1	2204	382.109615163839	0.188245364055
1	2209	383.028002996938	0.188245364055
1	2214	383.430579616	0.188245364055
1	2219	383.885184651804	0.188245364055
1	2224	384.245520858382	0.188245364055
1	2229	386.396223070084	0.188245364055
1	2234	389.212738570046	0.188245364055
1	2239	390.434903246657	0.188245364055
1	2244	391.03838434651	0.188245364055
1	2249	391.621494095982	0.188245364055
1	2254	394.576268008887	0.188245364055
1	2259	397.861091827841	0.188245364055
1	2264	398.830165919022	0.188245364055
1	2270	399.477954459566	0.188245364055
1	2275	400.525339841829	0.188245364055
1	2280	400.718645177195	0.188245364055
1	2285	401.285744750341	0.188245364055
1	2290	402.535210563921	0.188245364055
1	2295	404.519623850122	0.188245364055
1	2300	405.38823793162	0.188245364055
1	2305	407.538960841836	0.188245364055
1	2310	409.882409008834	0.188245364055
1	2315	412.158301947601	0.188245364055
1	2320	413.016621496511	0.188245364055
1	2325	413.3243185347	0.188245364055
1	2330	413.770799357522	0.188245364055
1	2335	414.761675701276	0.188245364055
1	2340	415.197452567001	0.188245364055
1	2345	415.56307321749	0.188245364055
1	2352	415.912095285809	0.188245364055
1	2355	416.100340649864	0.298570632455
1	2360	417.274473235019	0.188245364055
1	2365	417.796020382413	0.188245364055
1	2370	418.548007864794	0.188245364055
1	2375	421.903456922265	0.188245364055
1	2382	422.598060731436	0.188245364055
1	2385	422.786306095491	0.328299767619
1	2390	423.266621458021	0.188245364055
1	2395	423.611360619578	0.188245364055
1	2400	424.236293199755	0.188245364055
1	2405	425.384142516231	0.188245364055
1	2410	427.263364583003	0.188245364055
1	2415	427.543938964269	0.188245364055
1	2427	428.025440386766	0.188245364055
1	2430	428.213685750821	0.375943018212
1	2433	428.401931114876	0.505778405718
1	2436	428.590176478931	0.608654717201
1	2441	428.856881944461	0.188245364055
1	2446	432.506456616461	0.188245364055
1	2453	434.930472422418	0.188245364055
1	2456	435.118717786473	0.343376590987
1	2461	435.33486106675	0.188245364055
1	2466	435.891981092943	0.188245364055
1	2473	436.569398991978	0.188245364055
1	2476	436.757644356033	0.22241260216
1	2481	437.616178483996	0.188245364055
1	2488	442.912968320724	0.188245364055
1	2491	443.101213684779	0.370661049976
1	2496	443.996302586112	0.188245364055
1	2501	444.347980957577	0.188245364055
1	2506	445.082997998377	0.188245364055
1	2511	445.305366040087	0.188245364055
1	2516	445.759096979123	0.188245364055
1	2521	447.809827690686	0.188245364055
1	2528	448.188224681021	0.188245364055
1	2531	448.376470045076	0.325179972448
1	2536	448.764074855071	0.188245364055
1	2541	449.418774690343	0.188245364055
1	2546	449.61339062228	0.188245364055
1	2553	451.673585819204	0.188245364055
1	2556	451.861831183259	0.330732634628
1	2561	452.799274646036	0.188245364055
1	2566	455.114513997712	0.188245364055
1	2572	455.574397110647	0.402877205994
1	2577	456.213336291231	0.188245364055
1	2582	459.485891019609	0.188245364055
1	2589	460.009772456619	0.188245364055
1	2592	460.198017820674	0.36088648668
1	2599	460.973567460499	0.188245364055
1	2602	461.161812824554	0.352876575098
1	2607	463.392466983437	0.188245364055
1	2612	464.141065594094	0.188245364055
1	2617	464.449496523684	0.188245364055
1	2622	464.679970135687	0.188245364055
1	2627	464.925644746283	0.188245364055
1	2632	465.531985443532	0.188245364055
1	2637	469.145027507305	0.188245364055
1	2644	472.380449812653	0.188245364055
1	2647	472.568695176708	0.370683186958
1	2652	474.150436512417	0.188245364055
1	2657	476.583350264567	0.188245364055
1	2662	477.392635516472	0.188245364055
1	2669	479.953401375024	0.188245364055
1	2672	480.141646739079	0.306872862584
1	2677	481.409196775009	0.188245364055
1	2682	481.896506116578	0.188245364055
1	2687	482.634952367216	0.188245364055
1	2692	483.595809227067	0.188245364055
1	2697	483.799762809584	0.188245364055
1	2702	484.44733018212	0.188245364055
1	2707	487.517532893476	0.188245364055
1	2712	489.580071109264	0.188245364055
1	2717	490.399799974504	0.188245364055
1	2723	493.013175645654	0.188245364055
1	2728	494.204348230943	0.188245364055
1	2735	495.969390296175	0.188245364055
1	2738	496.15763566023	0.26868600254
1	2745	497.314665761255	0.188245364055
1	2748	497.50291112531	0.214676248365
1	2753	497.988273487429	0.188245364055
1	2762	499.177909067647	0.188245364055
1	2765	499.366154431702	0.376479137268
1	2768	499.554399795757	0.425617173702
1	2773	499.977237602207	0.188245364055
1	2778	500.428131085052	0.188245364055
1	2783	501.503506118328	0.188245364055
1	2788	501.962041704586	0.188245364055
1	2793	502.389054085397	0.188245364055
1	2798	503.96574311931	0.188245364055
1	2803	505.170167493354	0.188245364055
1	2808	505.632969948155	0.188245364055
1	2813	507.943418337492	0.188245364055
1	2820	509.144399840177	0.188245364055
1	2823	509.332645204232	0.250208550537
1	2828	509.591807829061	0.188245364055
1	2833	511.492803936324	0.188245364055
1	2838	512.776755963993	0.188245364055
1	2843	516.164931324994	0.188245364055
1	2848	518.650061688585	0.188245364055
1	2853	519.020219570146	0.188245364055
1	2860	520.4575246678	0.188245364055
1	2865	520.645770031855	0.33996553973
1	2868	520.83401539591	0.361960648981
1	2874	521.616990797619	0.188245364055
1	2881	525.490056477939	0.188245364055
1	2884	525.678301841994	0.216610748049
1	2889	526.316515763874	0.188245364055
1	2896	528.246265899762	0.188245364055
1	2899	528.434511263817	0.357950332345
1	2906	529.440747093625	0.188245364055
1	2909	529.62899245768	0.236380513037
1	2914	531.575259139497	0.188245364055
1	2919	533.056049504702	0.188245364055
1	2924	534.135448708575	0.188245364055
1	2931	535.472217779721	0.188245364055
1	2934	535.660463143776	0.213140578576
1	2939	536.809544073122	0.188245364055
1	2944	537.375923181812	0.188245364055
1	2951	538.668168210351	0.188245364055
1	2954	538.856413574406	0.224198948177
1	2959	540.349176798888	0.188245364055
1	2964	542.12801831233	0.188245364055
1	2969	542.491144205703	0.188245364055
1	2974	543.08810111421	0.188245364055
1	2979	543.498363298739	0.188245364055
1	2984	545.559961448438	0.188245364055
1	2989	548.157997060864	0.188245364055
1	2994	551.119284890377	0.188245364055
1	2999	551.480995736584	0.188245364055
1	3006	551.670728647806	0.188245364055
1	3011	551.858974011861	0.362634859334
1	3014	552.047219375916	0.21866257467
1	3019	553.120397801718	0.188245364055
1	3025	553.580280914653	0.19607401115
1	3030	554.129613545619	0.188245364055
1	3039	555.898669411708	0.188245364055
1	3044	556.086914775763	0.28808978221
1	3047	556.275160139818	0.406672087743
1	3050	556.463405503873	0.507591276249
1	3055	558.509029975851	0.188245364055
1	3060	559.223589377491	0.188245364055
1	3065	559.42639595945	0.188245364055
1	3070	560.48150729147	0.188245364055
1	3075	560.976207449702	0.188245364055
1	3080	561.794950363225	0.188245364055
1	3085	562.060390201278	0.188245364055
1	3090	563.316022258554	0.188245364055
1	3095	564.132668385538	0.188245364055
1	3100	564.3464811972	0.188245364055
1	3105	566.311803240151	0.188245364055
1	3110	566.921863633835	0.188245364055
1	3115	568.927432346582	0.188245364055
1	3120	569.266869548346	0.188245364055
1	3125	569.543830821417	0.188245364055
1	3132	570.821010611437	0.188245364055
1	3135	571.009255975492	0.224065355314
1	3140	571.294584134415	0.188245364055
1	3145	573.387641130917	0.188245364055
1	3150	573.72396210998	0.188245364055
1	3155	574.181852519868	0.188245364055
1	3162	574.745417126706	0.188245364055
1	3165	574.933662490761	0.232658007703
1	3170	575.271943767555	0.188245364055
1	3176	575.91569901286	0.188245364055
1	3181	576.66686238896	0.188245364055
1	3186	576.946379281557	0.188245364055
1	3193	577.210460956698	0.188245364055
1	3196	577.398706320753	0.224742552003
1	3201	578.230291888527	0.188245364055
1	3206	579.416241857926	0.188245364055
1	3213	579.657940461769	0.188245364055
1	3216	579.846185825824	0.367458250595
1	3221	580.27849048175	0.188245364055
1	3226	581.199887061011	0.188245364055
1	3231	582.238022713698	0.188245364055
1	3236	582.723791051397	0.188245364055
1	3241	583.238956001763	0.188245364055
1	3246	583.789094288445	0.188245364055
1	3251	585.118034517675	0.188245364055
1	3256	586.54077852866	0.188245364055
1	3263	588.298613718614	0.188245364055
1	3266	588.486859082669	0.311219802809
1	3273	589.428957526228	0.188245364055
1	3276	589.617202890283	0.228246903551
1	3281	590.002225742538	0.188245364055
1	3286	590.209302644964	0.188245364055
1	3291	591.814400249489	0.188245364055
1	3296	592.032281104646	0.188245364055
1	3301	594.383769735805	0.188245364055
1	3306	594.635025184801	0.188245364055
1	3311	595.889149618784	0.188245364055
1	3318	596.54600879948	0.188245364055
1	3323	596.734254163535	0.352726134914
1	3327	597.19413727647	0.599980031893
1	3334	598.800477252892	0.188245364055
1	3337	598.988722616947	0.275546564707
1	3342	599.445917662319	0.188245364055
1	3347	600.079960265568	0.188245364055
1	3352	600.989375231782	0.188245364055
1	3357	601.205371113374	0.188245364055
1	3362	601.401852635692	0.188245364055
1	3369	602.056514463596	0.188245364055
1	3372	602.244759827651	0.268088266195
1	3379	607.134695282475	0.188245364055
1	3382	607.32294064653	0.222831995032
1	3387	610.231296224174	0.188245364055
1	3392	611.676547901778	0.188245364055
1	3397	613.349188576329	0.188245364055
1	3402	616.738787495965	0.188245364055
1	3407	617.176645251859	0.188245364055
1	3412	618.956309654179	0.188245364055
1	3417	620.071299477849	0.188245364055
1	3422	620.54573408878	0.188245364055
1	3427	620.979655556575	0.188245364055
1	3432	622.418826734013	0.188245364055
1	3437	624.157193643068	0.188245364055
1	3442	626.787517191095	0.188245364055
1	3447	627.444809068912	0.188245364055
1	3452	630.302962548226	0.188245364055
1	3457	632.327097014928	0.188245364055
1	3462	633.402814136011	0.188245364055
1	3469	633.819481506532	0.188245364055
1	3472	634.007726870587	0.317053772884
1	3478	638.442506952848	0.188245364055
1	3483	639.268253606988	0.188245364055
1	3488	640.277104588105	0.188245364055
1	3497	640.521523311856	0.188245364055
1	3500	640.709768675911	0.326761628869
1	3503	640.898014039966	0.377845057574
1	3508	641.191775307043	0.188245364055
1	3513	641.595588044727	0.188245364055
1	3518	641.88909273086	0.188245364055
1	3523	642.217325847846	0.188245364055
1	3528	642.695355331783	0.188245364055
1	3533	642.911254099395	0.188245364055
1	3540	643.34091088647	0.188245364055
1	3543	643.529156250525	0.275954599548
1	3550	646.297791716927	0.188245364055
1	3553	646.486037080982	0.325034299954
1	3560	646.922145110056	0.188245364055
1	3563	647.110390474111	0.194390168368
1	3568	647.539624362108	0.188245364055
1	3573	648.057506388661	0.188245364055
1	3578	651.856598236247	0.188245364055
1	3583	656.936105505906	0.188245364055
1	3588	658.199814400796	0.188245364055
1	3593	659.255243266853	0.188245364055
1	3598	661.694445857926	0.188245364055
1	3603	661.925822587176	0.188245364055
1	3608	662.481521204897	0.188245364055
1	3613	663.081124287716	0.188245364055
1	3618	664.095826850477	0.188245364055
1	3623	671.467539510171	0.188245364055
1	3631	671.927422623106	0.232506741122
1	3634	672.115667987161	0.206032924046
1	3639	672.41999349821	0.188245364055
1	3644	674.145446192044	0.188245364055
1	3649	674.376715783453	0.188245364055
1	3656	675.292179195586	0.188245364055
1	3659	675.480424559641	0.192876617342
1	3664	677.416400101431	0.188245364055
1	3669	678.834325723539	0.188245364055
1	3674	679.695961183361	0.188245364055
1	3679	682.882632433195	0.188245364055
1	3684	684.307789106313	0.188245364055
1	3691	685.178449754481	0.188245364055
1	3696	685.366695118536	0.199396996207
1	3699	685.554940482591	0.30145753775
1	3704	686.12343149939	0.188245364055
1	3711	686.524388801159	0.188245364055
1	3714	686.712634165214	0.257862134979
1	3721	688.978035776856	0.188245364055
1	3724	689.166281140911	0.236513903411
1	3729	689.53810555327	0.188245364055
1	3734	690.813236602485	0.188245364055
1	3739	691.335972822664	0.188245364055
1	3744	692.460694400439	0.188245364055
1	3749	694.561095520888	0.188245364055
1	3754	694.924881691573	0.188245364055
1	3759	695.857781387453	0.188245364055
1	3764	696.480670806857	0.188245364055
1	3771	699.076077735778	0.188245364055
1	3774	699.264323099833	0.193924490301
1	3780	699.724206212768	0.224293006362
1	3785	700.924133735372	0.188245364055
1	3790	701.407626138561	0.188245364055
1	3795	702.736917253374	0.188245364055
1	3800	703.660222426482	0.188245364055
1	3805	704.048237010336	0.188245364055
1	3810	705.459189296211	0.188245364055
1	3815	706.488350912966	0.188245364055
1	3820	706.841085291481	0.188245364055
1	3825	707.440869912159	0.188245364055
1	3830	708.370190283814	0.188245364055
1	3835	709.484087754664	0.188245364055
1	3840	710.023142407272	0.188245364055
1	3845	711.562460720808	0.188245364055
1	3850	713.11778519351	0.188245364055
1	3855	714.230506448045	0.188245364055
1	3862	714.864356500647	0.188245364055
1	3865	715.052601864702	0.29325286852
1	3870	717.915526247722	0.188245364055
1	3875	719.252018642074	0.188245364055
1	3880	719.77527713258	0.188245364055
1	3885	721.265433342016	0.188245364055
1	3892	722.86465752516	0.188245364055
1	3895	723.052902889215	0.233374247566
1	3900	723.370906937595	0.188245364055
1	3905	724.557265601381	0.188245364055
1	3910	725.255966077784	0.188245364055
1	3915	725.869580643758	0.188245364055
1	3920	726.28859480021	0.188245364055
1	3925	727.911334580374	0.188245364055
1	3931	728.371217693309	0.248411279536
1	3936	729.063335143403	0.188245364055
1	3943	729.771374154451	0.188245364055
1	3946	729.959619518506	0.232579722181
1	3951	731.183535569922	0.188245364055
1	3956	733.45442579651	0.188245364055
1	3961	735.205115424843	0.188245364055
1	3966	735.911724697066	0.188245364055
1	3971	737.490145800114	0.188245364055
1	3976	738.631364814089	0.188245364055
1	3981	739.254769400643	0.188245364055
1	3986	739.80221902261	0.188245364055
1	3993	744.22974246126	0.188245364055
1	3996	744.417987825315	0.365323231455
1	4001	744.840134576801	0.188245364055
1	4006	746.273344493245	0.188245364055
1	4011	747.905499429343	0.188245364055
1	4016	751.445857117128	0.188245364055
1	4021	754.602883773397	0.188245364055
1	4026	755.914704851228	0.188245364055
1	4031	756.931858688477	0.188245364055
1	4036	757.283032341584	0.188245364055
1	4041	759.370743355761	0.188245364055
1	4046	759.614169158047	0.188245364055
1	4051	763.920953388016	0.188245364055
1	4056	764.42658511538	0.188245364055
1	4061	765.040928383274	0.188245364055
1	4066	765.517261146854	0.188245364055
1	4071	767.335234355852	0.188245364055
1	4076	769.539004966361	0.188245364055
1	4086	770.475898521321	0.188245364055
1	4089	770.664143885376	0.29931263121
1	4092	770.852389249431	0.3974716674
1	4097	775.138409871955	0.188245364055
1	4102	775.719419381589	0.188245364055
1	4107	776.01712171875	0.188245364055
1	4112	776.306024568309	0.188245364055
1	4117	777.163129344351	0.188245364055
1	4122	778.224519495061	0.188245364055
1	4127	778.993883829464	0.188245364055
1	4134	780.138862045879	0.188245364055
1	4137	780.327107409934	0.238714469236
1	4144	781.125139324344	0.188245364055
1	4147	781.313384688399	0.239444628658
1	4152	781.780975601525	0.188245364055
1	4157	783.16390166865	0.188245364055
1	4162	784.799065766313	0.188245364055
1	4167	785.487067435988	0.188245364055
1	4172	786.871617257513	0.188245364055
1	4177	787.290392207142	0.188245364055
1	4182	789.166661261479	0.188245364055
1	4187	790.343916462773	0.188245364055
1	4192	790.590167083002	0.188245364055
1	4197	793.60466741935	0.188245364055
1	4202	794.203100549293	0.188245364055
1	4211	794.611164952643	0.188245364055
1	4214	794.799410316698	0.346830717341
1	4217	794.987655680753	0.505279511611
1	4222	795.888615567459	0.188245364055
1	4229	796.471705348237	0.188245364055
1	4233	796.931588461172	0.62773582572
1	4240	797.68050224406	0.188245364055
1	4243	797.868747608115	0.294863352622
1	4248	799.184382632015	0.188245364055
1	4253	800.280221309274	0.188245364055
1	4258	800.602673845401	0.188245364055
1	4265	801.211781309392	0.188245364055
1	4268	801.400026673447	0.363501944642
1	4273	802.278372074985	0.188245364055
1	4278	802.838344124488	0.188245364055
1	4283	804.783922707832	0.188245364055
1	4288	806.578160244455	0.188245364055
1	4293	807.420965637045	0.188245364055
1	4298	808.49796127226	0.188245364055
1	4303	809.140663865501	0.188245364055
1	4308	809.39373717699	0.188245364055
1	4313	810.754505140375	0.188245364055
1	4318	811.153804712738	0.188245364055
1	4323	813.042591058595	0.188245364055
1	4328	817.960206731119	0.188245364055
1	4333	818.291340242206	0.188245364055
1	4340	818.93899942942	0.188245364055
1	4343	819.127244793475	0.269900722347
1	4348	821.859340980017	0.188245364055
1	4355	823.588224877641	0.188245364055
1	4358	823.776470241696	0.278943592428
1	4363	824.182027204932	0.188245364055
1	4368	825.855786968051	0.188245364055
1	4373	827.397063339132	0.188245364055
1	4378	828.331164165442	0.188245364055
1	4384	828.845886833023	0.188245364055
1	4391	829.866957107662	0.188245364055
1	4394	830.055202471717	0.205910702153
1	4399	833.775276977487	0.188245364055
1	4404	834.175188829518	0.188245364055
1	4409	835.061103820052	0.188245364055
1	4414	835.870981973077	0.188245364055
1	4421	837.341296537318	0.188245364055
1	4424	837.529541901373	0.365579783121
1	4429	838.727317639357	0.188245364055
1	4434	840.309273137678	0.188245364055
1	4439	841.503875904845	0.188245364055
1	4444	843.208273046804	0.188245364055
1	4449	844.055577848983	0.188245364055
1	4454	844.361315658543	0.188245364055
1	4459	846.148090398413	0.188245364055
1	4464	846.351522271625	0.188245364055
1	4469	846.566636896124	0.188245364055
1	4474	847.459403226968	0.188245364055
1	4483	850.113591212818	0.188245364055
1	4486	850.301836576873	0.369528604576
1	4491	850.490081940928	0.54984862772
1	4494	850.678327304983	0.237212030364
1	4499	851.707047224943	0.188245364055
1	4504	852.524609723204	0.188245364055
1	4511	853.705345925544	0.188245364055
1	4514	853.893591289599	0.212046578746
1	4521	854.521449234292	0.188245364055
1	4524	854.709694598347	0.35385608789
1	4529	855.075693647408	0.188245364055
1	4537	855.751379248706	0.188245364055
1	4540	855.939624612761	0.205342944948
1	4545	857.558292265769	0.188245364055
1	4550	858.175723685824	0.188245364055
1	4555	859.355275159039	0.188245364055
1	4560	862.918007032427	0.188245364055
1	4565	864.866523108331	0.188245364055
1	4570	865.890857959402	0.188245364055
1	4575	867.800589498143	0.188245364055
1	4580	869.056524098414	0.188245364055
1	4585	870.607708116846	0.188245364055
1	4590	871.594167931292	0.188245364055
1	4597	872.436422079128	0.188245364055
1	4600	872.624667443183	0.259548478971
1	4605	873.012305072456	0.188245364055
1	4610	874.814714132898	0.188245364055
1	4615	877.645068275786	0.188245364055
1	4622	879.536584830284	0.188245364055
1	4627	879.724830194339	0.25064800646
1	4630	879.913075558394	0.252870786069
1	4639	880.178184733808	0.188245364055
1	4642	880.366430097863	0.265982277381
1	4645	880.554675461918	0.447893347231
1	4650	881.320449431988	0.188245364055
1	4655	881.642809527699	0.188245364055
1	4660	883.407110007193	0.188245364055
1	4665	883.628985281503	0.188245364055
1	4672	883.871488890064	0.188245364055
1	4675	884.059734254119	0.188495563745
1	4680	884.45536617726	0.188245364055
1	4686	884.973229455016	0.188245364055
1	4691	886.691610619063	0.188245364055
1	4696	887.07840015239	0.188245364055
1	4701	887.424524561776	0.188245364055
1	4706	888.93116532259	0.188245364055
1	4711	889.234161181942	0.188245364055
1	4716	890.9480352086	0.188245364055
1	4721	894.710551783933	0.188245364055
1	4726	895.09866160431	0.188245364055
1	4731	895.874797356843	0.188245364055
1	4736	897.008475161451	0.188245364055
1	4741	898.40477504095	0.188245364055
1	4746	899.824412864029	0.188245364055
1	4751	901.14552801088	0.188245364055
1	4756	902.627276750027	0.188245364055
1	4761	903.062831817622	0.188245364055
1	4766	904.422677279853	0.188245364055
1	4771	905.297345590768	0.188245364055
1	4776	905.872479986574	0.188245364055
1	4783	906.095041793158	0.188245364055
1	4786	906.283287157213	0.356608613287
1	4793	909.298922382272	0.188245364055
1	4796	909.487167746327	0.349750587716
1	4801	910.05646271538	0.188245364055
1	4806	910.328215585188	0.188245364055
1	4811	910.987964819028	0.188245364055
1	4816	912.938352482236	0.188245364055
1	4821	916.306712416896	0.188245364055
1	4826	916.727598767359	0.188245364055
1	4831	917.005106919631	0.188245364055
1	4837	919.92018047158	0.188245364055
1	4842	920.477867585473	0.188245364055
1	4847	921.517019473133	0.188245364055
1	4852	921.972352353324	0.188245364055
1	4857	922.240954809155	0.188245364055
1	4862	924.430265536775	0.188245364055
1	4869	925.199055532667	0.188245364055
1	4872	925.387300896722	0.352992713994
1	4877	926.655766660795	0.188245364055
1	4884	927.208534428505	0.188245364055
1	4887	927.39677979256	0.201656744917
1	4892	928.381837022808	0.188245364055
1	4899	929.426466742678	0.188245364055
1	4902	929.614712106733	0.273040812658
1	4907	930.080390055562	0.188245364055
1	4914	931.678595307862	0.188245364055
1	4917	931.866840671917	0.316259585098
1	4922	932.971795137242	0.188245364055
1	4929	934.121597070986	0.188245364055
1	4932	934.309842435041	0.363619648317
1	4939	934.954272360036	0.188245364055
1	4942	935.142517724091	0.348689988812
1	4947	936.259003944459	0.188245364055
1	4952	936.951574981162	0.188245364055
1	4957	937.843529258661	0.188245364055
1	4962	940.462023905801	0.188245364055
1	4967	942.397237186446	0.188245364055
1	4974	942.629897408406	0.188245364055
1	4977	942.818142772461	0.222380803021
1	4982	943.32594683604	0.188245364055
1	4988	944.643124484451	0.188245364055
1	4993	945.323078646522	0.188245364055
1	4998	945.683834195662	0.188245364055
1	5003	948.385019015355	0.188245364055
1	5008	948.733070335148	0.188245364055
1	5013	951.568262610772	0.188245364055
1	5018	951.886327031335	0.188245364055
1	5023	952.64229252136	0.188245364055
1	5028	954.637111339179	0.188245364055
1	5033	955.96500950556	0.188245364055
1	5038	956.252445161174	0.188245364055
1	5043	957.304237838699	0.188245364055
1	5048	959.057950268783	0.188245364055
1	5053	960.411819378282	0.188245364055
1	5058	962.14966682221	0.188245364055
1	5065	962.699898100168	0.188245364055
1	5068	962.888143464223	0.303088618717
1	5073	964.15594043939	0.188245364055
1	5078	964.548062613879	0.188245364055
1	5083	965.398743381027	0.188245364055
1	5088	965.922264280579	0.188245364055
1	5093	967.111116833617	0.188245364055
1	5098	970.072585366259	0.188245364055
1	5103	971.429547365888	0.188245364055
1	5108	973.411627147531	0.188245364055
1	5113	975.820978948848	0.188245364055
1	5118	976.213621552794	0.188245364055
1	5123	976.760272564752	0.188245364055
1	5128	977.790531407021	0.188245364055
1	5133	978.005394190372	0.188245364055
1	5139	978.790165474122	0.188245364055
1	5144	979.952454862791	0.188245364055
1	5151	980.790149441345	0.188245364055
1	5154	980.9783948054	0.238416970637
1	5159	981.928710869605	0.188245364055
1	5164	982.707473094181	0.188245364055
1	5169	983.025556794706	0.188245364055
1	5174	983.450231023391	0.188245364055
1	5179	984.729063526557	0.188245364055
1	5184	985.802705726861	0.188245364055
1	5189	986.398370966609	0.188245364055
1	5194	986.854478585744	0.188245364055
1	5201	987.743727901885	0.188245364055
1	5206	987.93197326594	0.370611300516
1	5209	988.120218629995	0.240025102717
1	5214	988.803152595914	0.188245364055
1	5219	990.786686143096	0.188245364055
1	5224	993.021439989428	0.188245364055
1	5231	994.303484738819	0.188245364055
1	5234	994.491730102874	0.358080898486
1	5239	996.579489624194	0.188245364055
1	5244	997.742656212964	0.188245364055
2	5	0.299000992312	0
2	10	1.359633115803	0
2	15	2.025044418069	0
2	22	4.113148861429	0
2	25	4.301394225484	0.00997613885
2	30	6.660595479672	0
2	35	6.97656578443	0
2	40	10.34571017723	0
2	45	10.677191963254	0
2	50	11.510962970817	0
2	57	12.261659361957	0
2	60	12.449904726012	0.022606948753
2	65	14.114922541914	0
2	70	14.3584612946	0
2	75	14.583932986306	0
2	80	15.504887433379	0
2	85	16.460203460437	0
2	90	16.983557686625	0
2	95	17.860808675981	0
2	100	18.09453272805	0
2	105	18.850014662942	0
2	110	19.192943358916	0
2	115	19.536970419661	0
2	120	26.50621360316	0
2	127	26.998245422188	0
2	130	27.186490786243	0.077344172608
2	135	27.496132922008	0
2	140	28.922720154839	0
2	145	29.539840954756	0
2	150	30.848593542083	0
2	156	31.308476655018	0.254046835064
2	161	32.026967106113	0
2	166	32.473695978559	0
2	173	33.125076378837	0
2	176	33.313321742892	0.055026995032
2	181	35.29946375122	0
2	186	37.982152193368	0
2	193	38.331474182195	0
2	196	38.51971954625	0.172100757331
2	201	42.70384685675	0
2	208	43.467755367541	0
2	211	43.656000731596	0.092872911174
2	218	46.347441030198	0
2	221	46.535686394253	0.105086151139
2	226	48.456553129432	0
2	231	50.691727261732	0
2	236	51.266216895185	0
2	241	51.984014433155	0
2	248	52.472711008946	0
2	251	52.660956373001	0.027987749125
2	256	53.187355393552	0
2	263	54.877916141329	0
2	266	55.066161505384	0.126160715532
2	271	55.554217277171	0
2	280	55.858148930323	0
2	283	56.046394294378	0.131202682124
2	286	56.234639658433	0.293914126849
2	291	57.447000470359	0
2	298	58.361563917657	0
2	301	58.549809281712	0.185732335916
2	307	59.518348375567	0
2	312	60.26578934438	0
2	319	60.61267637687	0
2	322	60.800921740925	0.048964040232
2	327	62.196439701747	0
2	332	63.10403383511	0
2	337	63.821481394756	0
2	342	64.704017692755	0
2	347	64.988092200473	0
2	352	65.53779903575	0
2	357	66.006297823902	0
2	362	67.558124201865	0
2	367	69.230164876227	0
2	372	70.409706988291	0
2	377	70.667005989973	0
2	382	71.152549690054	0
2	387	71.727755476714	0
2	392	71.948641239016	0
2	397	72.449098686072	0
2	404	72.645082281763	0
2	407	72.833327645818	0.05269876532
2	412	74.180056404653	0
2	417	74.629880878114	0
2	424	74.830805185416	0
2	429	75.019050549471	0.075288731234
2	432	75.207295913526	0.099975895135
2	439	75.843161620304	0
2	442	76.031406984359	0.030147349142
2	447	76.835261773746	0
2	452	78.245618760187	0
2	458	79.368466908243	0
2	463	80.27725578717	0
2	472	80.7924620386	0
2	475	80.980707402655	0.098532658567
2	478	81.16895276671	0.219844125778
2	483	82.131898693638	0
2	488	82.748107909794	0
2	493	84.513105946442	0
2	498	86.518076083358	0
2	505	88.870244288331	0
2	508	89.058489652386	0.111203750966
2	515	90.002859672337	0
2	518	90.191105036392	0.078061882279
2	523	90.589253226441	0
2	528	92.101830350007	0
2	533	94.438154083372	0
2	540	95.149668369975	0
2	543	95.33791373403	0.041136865335
2	548	96.184790539426	0
2	553	97.106727920597	0
2	558	100.247012850808	0
2	563	101.049138129207	0
2	568	101.463549391494	0
2	573	105.338987413898	0
2	578	105.846609469736	0
2	583	106.493587707694	0
2	588	107.928433280157	0
2	593	108.425459300257	0
2	600	109.060895135153	0
2	605	109.249140499208	0.038322160651
2	609	109.709023612143	0.327831072968
2	614	110.76892179443	0
2	619	111.064100790359	0
2	624	111.459328243773	0
2	629	112.365003453729	0
2	634	113.747847581664	0
2	639	114.796991659578	0
2	644	115.57785846963	0
2	649	116.374629941001	0
2	656	118.043989	0
2	659	118.232234364055	0.020682079814
2	664	118.874637789583	0
2	671	119.253023760814	0
2	674	119.441269124869	0.097193689605
2	679	120.554319756736	0
2	686	121.365628036694	0
2	689	121.553873400749	0.181729844995
2	694	123.191750749632	0
2	701	124.102939928976	0
2	706	124.291185293031	0.105258063798
2	709	124.479430657086	0.173564207119
2	714	124.747972004329	0
2	719	128.85266839134	0
2	724	130.228854906092	0
2	729	130.934491070949	0
2	734	131.691930092496	0
2	743	132.078963572874	0
2	746	132.267208936929	0.171779468132
2	749	132.455454300984	0.230153165036
2	754	133.120915611834	0
2	760	133.758106086359	0
2	767	134.339965981209	0
2	770	134.528211345264	0.08625320092
2	775	134.924393151925	0
2	780	135.660757183378	0
2	785	136.156835906133	0
2	790	139.554095031253	0
2	795	140.513382255841	0
2	800	141.089989523475	0
2	805	143.303378052363	0
2	810	143.910511046	0
2	815	144.227275447437	0
2	820	145.362727057164	0
2	825	146.190261996791	0
2	830	150.68237188567	0
2	835	152.489605553893	0
2	840	154.285260979501	0
2	845	154.891061860013	0
2	850	155.171205833049	0
2	855	155.769739832004	0
2	862	155.959522677043	0
2	865	156.147768041098	0.026517567506
2	872	156.899910851119	0
2	875	157.088156215174	0.04943219071
2	882	162.684511299733	0
2	885	162.872756663788	0.035956661457
2	890	163.29170166397	0
2	895	163.978127245232	0
2	900	165.59108392588	0
2	905	166.522026986383	0
2	911	167.709467267517	0
2	918	168.045082876172	0
2	923	168.233328240227	0.063890822427
2	926	168.421573604282	0.021995228882
2	931	168.947827889013	0
2	936	169.717374171085	0
2	941	170.698336245104	0
2	946	170.907065401575	0
2	951	172.207110241984	0
2	958	172.857109068658	0
2	961	173.045354432713	0.07847227125
2	966	173.835055708248	0
2	973	174.487314807884	0
2	976	174.675560171939	0.138163292572
2	981	175.176852095444	0
2	986	175.954367403175	0
2	991	176.788157767562	0
2	996	178.921868726079	0
2	1001	180.001327064447	0
2	1006	181.386317819598	0
2	1011	181.692938490801	0
2	1016	183.215918577839	0
2	1023	184.159620546526	0
2	1026	184.347865910581	0.182055359107
2	1031	188.239476236092	0
2	1036	188.61325086395	0
2	1041	189.974391126982	0
2	1046	191.322157855452	0
2	1051	192.549068311654	0
2	1056	192.796477707231	0
2	1062	193.790684439636	0
2	1067	195.07459307428	0
2	1072	195.391353031984	0
2	1079	196.100118369277	0
2	1082	196.288363733332	0.157880980846
2	1087	196.533007829032	0
2	1092	196.97219154341	0
2	1097	197.203804398829	0
2	1102	197.510027360159	0
2	1107	198.099746877464	0
2	1114	200.550683237299	0
2	1117	200.738928601354	0.003429856956
2	1122	200.944861573682	0
2	1127	201.359850926471	0
2	1132	202.307696861091	0
2	1137	203.307296549949	0
2	1144	204.621978989117	0
2	1149	204.810224353172	0.058369293514
2	1154	204.998469717227	0.145834312546
2	1157	205.186715081282	0.102481847207
2	1162	207.374985852593	0
2	1167	208.752828900092	0
2	1174	209.363129059832	0
2	1177	209.551374423887	0.168439422623
2	1182	210.918778227069	0
2	1187	212.485571330005	0
2	1194	212.716029597699	0
2	1197	212.904274961754	0.105274003752
2	1202	214.991942522787	0
2	1207	216.53863823474	0
2	1213	216.998521347675	0.179206262717
2	1218	218.068202768938	0
2	1225	218.46392575234	0
2	1228	218.652171116395	0.074667711306
2	1233	218.845243905486	0
2	1240	219.070013392092	0
2	1243	219.258258756147	0.065378332768
2	1248	219.773912510205	0
2	1253	220.537923508451	0
2	1258	221.000058179697	0
2	1263	222.314423017464	0
2	1268	222.646390111219	0
2	1273	225.133276416247	0
2	1278	225.632195924647	0
2	1287	227.499414156433	0
2	1290	227.687659520488	0.098870480483
2	1293	227.875904884543	0.199974811506
2	1298	228.299827668056	0
2	1305	229.642589296538	0
2	1308	229.830834660593	0.157174582702
2	1313	230.717685047425	0
2	1318	231.394991609655	0
2	1323	232.810755446948	0
2	1328	234.041212129123	0
2	1333	234.593965742284	0
2	1338	237.979032691019	0
2	1343	238.196667781231	0
2	1348	238.880935855452	0
2	1355	242.777947040495	0
2	1358	242.96619240455	0.184477803063
2	1364	243.426075517485	0.226290048488
2	1369	244.303939727668	0
2	1374	246.033642778121	0
2	1379	246.568168627164	0
2	1384	248.286628433402	0
2	1389	249.16526456289	0
2	1394	252.453716780718	0
2	1401	253.424314879619	0
2	1404	253.612560243674	0.149771225404
2	1409	254.671065910041	0
2	1414	255.157307249001	0
2	1421	258.247229336801	0
2	1424	258.435474700856	0.173519756574
2	1429	258.647316041554	0
2	1436	259.227023049889	0
2	1439	259.415268413944	0.141113069543
2	1444	260.416644003425	0
2	1449	263.804295350384	0
2	1458	264.237716524819	0
2	1461	264.425961888874	0.128782456989
2	1464	264.614207252929	0.232982501164
2	1469	264.810226678065	0
2	1478	265.882933004222	0
2	1481	266.071178368277	0.185376511109
2	1484	266.259423732332	0.351037492512
2	1489	267.451421928114	0
2	1494	267.800699484161	0
2	1499	268.693077801424	0
2	1504	270.305424523814	0
2	1509	270.857842282392	0
2	1515	273.762807517653	0
2	1520	274.355853698593	0
2	1525	274.975470794558	0
2	1530	275.846268057944	0
2	1535	276.649581175271	0
2	1540	277.757543336893	0
2	1547	278.090908631471	0
2	1550	278.279153995526	0.068424617191
2	1555	278.963760516338	0
2	1560	279.166620155877	0
2	1565	279.653637555404	0
2	1570	279.990614614259	0
2	1575	280.315595920165	0
2	1580	281.204770059999	0
2	1585	282.443663340049	0
2	1596	284.817256782868	0
2	1601	285.005502146923	0.148823034874
2	1604	285.193747510978	0.214022298575
2	1607	285.381992875033	0.39325311488
2	1610	285.570238239088	0.528350748353
2	1615	286.685587686081	0
2	1620	287.619988409173	0
2	1625	288.146302715781	0
2	1630	288.744844874184	0
2	1635	293.573683793182	0
2	1640	294.085917970084	0
2	1645	294.804494511408	0
2	1650	295.455972843011	0
2	1655	297.418775629515	0
2	1660	298.43677502227	0
2	1668	300.498866429935	0
2	1671	300.68711179399	0.066784170178
2	1676	301.828771649033	0
2	1681	302.406719825769	0
2	1686	304.820884051921	0
2	1691	305.556826219812	0
2	1698	306.358515844272	0
2	1703	306.546761208327	0.086702074316
2	1706	306.735006572382	0.087507010216
2	1713	308.309074497758	0
2	1716	308.497319861813	0.052392607911
2	1721	309.304213700632	0
2	1726	310.214317583934	0
2	1731	311.017911127592	0
2	1736	313.03479484374	0
2	1741	313.386405575754	0
2	1746	314.557299124383	0
2	1751	316.612850780932	0
2	1756	317.694540901042	0
2	1761	317.886431272558	0
2	1766	319.275094045784	0
2	1771	319.480841069434	0
2	1780	320.557830979893	0
2	1783	320.746076343948	0.159760290735
2	1788	320.934321708003	0.27641183928
2	1791	321.122567072058	0.065824611367
2	1796	322.114652700286	0
2	1801	322.346839197182	0
2	1806	323.249995014193	0
2	1811	323.643535832826	0
2	1817	324.365210001406	0
2	1822	325.023120603661	0
2	1827	325.302694405134	0
2	1832	326.34994708587	0
2	1837	327.171189784696	0
2	1842	328.296482151107	0
2	1847	329.446656426478	0
2	1854	331.705659634979	0
2	1857	331.893904999034	0.18583585964
2	1866	332.669544385028	0
2	1871	332.857789749083	0.104915544593
2	1874	333.046035113138	0.271913226427
2	1877	333.234280477193	0.315760986576
2	1882	333.623319926206	0
2	1889	334.014432167414	0
2	1892	334.202677531469	0.040860645156
2	1897	339.117014892314	0
2	1902	339.961391178786	0
2	1909	340.375885326022	0
2	1912	340.564130690077	0.147625561983
2	1917	341.206423875055	0
2	1922	342.658906638047	0
2	1927	343.592632423061	0
2	1932	344.510081759821	0
2	1937	344.938693108434	0
2	1942	345.151540304795	0
2	1947	345.880011877157	0
2	1952	347.598934384842	0
2	1957	348.251643399503	0
2	1962	348.580856044905	0
2	1968	349.12598719513	0
2	1973	350.634248327003	0
2	1978	351.183080413359	0
2	1985	353.467000207493	0
2	1988	353.655245571548	0.171143813684
2	1993	354.297097561172	0
2	1998	354.503969601714	0
2	2003	354.740559604473	0
2	2010	355.653770369561	0
2	2013	355.842015733616	0.037853537846
2	2018	357.155965458033	0
2	2023	357.877916619759	0
2	2028	358.508886629734	0
2	2035	359.573983325441	0
2	2038	359.762228689496	0.010941917259
2	2043	360.116668895104	0
2	2048	361.138885547056	0
2	2053	361.385418900671	0
2	2058	361.643287182003	0
2	2065	362.979692122618	0
2	2068	363.167937486673	0.063906780409
2	2073	364.042035146858	0
2	2078	365.228332947164	0
2	2083	365.996463683879	0
2	2088	366.226725659119	0
2	2093	366.787465732551	0
2	2098	367.70103942714	0
2	2103	368.293548274042	0
2	2110	368.854514006589	0
2	2113	369.042759370644	0.035303701244
2	2119	369.569945938746	0
2	2124	370.819336148426	0
2	2129	371.074951137282	0
2	2134	371.34569848303	0
2	2139	371.992319746012	0
2	2146	373.541685873923	0
2	2149	373.729931237978	0.02129328538
2	2154	375.246515891204	0
2	2159	376.025757508239	0
2	2166	376.553959954068	0
2	2169	376.742205318123	0.008342570125
2	2176	377.047486487279	0
2	2179	377.235731851334	0.052001304549
2	2186	378.718774709645	0
2	2189	378.9070200737	0.029156457893
2	2196	380.595546229219	0
2	2199	380.783791593274	0.07663836957
2	2204	382.109615163839	0
2	2209	383.028002996938	0
2	2214	383.430579616	0
2	2219	383.885184651804	0
2	2224	384.245520858382	0
2	2229	386.396223070084	0
2	2234	389.212738570046	0
2	2239	390.434903246657	0
2	2244	391.03838434651	0
2	2249	391.621494095982	0
2	2254	394.576268008887	0
2	2259	397.861091827841	0
2	2264	398.830165919022	0
2	2270	399.477954459566	0
2	2275	400.525339841829	0
2	2280	400.718645177195	0
2	2285	401.285744750341	0
2	2290	402.535210563921	0
2	2295	404.519623850122	0
2	2300	405.38823793162	0
2	2305	407.538960841836	0
2	2310	409.882409008834	0
2	2315	412.158301947601	0
2	2320	413.016621496511	0
2	2325	413.3243185347	0
2	2330	413.770799357522	0
2	2335	414.761675701276	0
2	2340	415.197452567001	0
2	2345	415.56307321749	0
2	2352	415.912095285809	0
2	2355	416.100340649864	0.1103252684
2	2360	417.274473235019	0
2	2365	417.796020382413	0
2	2370	418.548007864794	0
2	2375	421.903456922265	0
2	2382	422.598060731436	0
2	2385	422.786306095491	0.140054403564
2	2390	423.266621458021	0
2	2395	423.611360619578	0
2	2400	424.236293199755	0
2	2405	425.384142516231	0
2	2410	427.263364583003	0
2	2415	427.543938964269	0
2	2427	428.025440386766	0
2	2430	428.213685750821	0.187697654157
2	2433	428.401931114876	0.317533041663
2	2436	428.590176478931	0.420409353146
2	2441	428.856881944461	0
2	2446	432.506456616461	0
2	2453	434.930472422418	0
2	2456	435.118717786473	0.155131226932
2	2461	435.33486106675	0
2	2466	435.891981092943	0
2	2473	436.569398991978	0
2	2476	436.757644356033	0.034167238105
2	2481	437.616178483996	0
2	2488	442.912968320724	0
2	2491	443.101213684779	0.182415685921
2	2496	443.996302586112	0
2	2501	444.347980957577	0
2	2506	445.082997998377	0
2	2511	445.305366040087	0
2	2516	445.759096979123	0
2	2521	447.809827690686	0
2	2528	448.188224681021	0
2	2531	448.376470045076	0.136934608393
2	2536	448.764074855071	0
2	2541	449.418774690343	0
2	2546	449.61339062228	0
2	2553	451.673585819204	0
2	2556	451.861831183259	0.142487270573
2	2561	452.799274646036	0
2	2566	455.114513997712	0
2	2572	455.574397110647	0.214631841939
2	2577	456.213336291231	0
2	2582	459.485891019609	0
2	2589	460.009772456619	0
2	2592	460.198017820674	0.172641122625
2	2599	460.973567460499	0
2	2602	461.161812824554	0.164631211043
2	2607	463.392466983437	0
2	2612	464.141065594094	0
2	2617	464.449496523684	0
2	2622	464.679970135687	0
2	2627	464.925644746283	0
2	2632	465.531985443532	0
2	2637	469.145027507305	0
2	2644	472.380449812653	0
2	2647	472.568695176708	0.182437822903
2	2652	474.150436512417	0
2	2657	476.583350264567	0
2	2662	477.392635516472	0
2	2669	479.953401375024	0
2	2672	480.141646739079	0.118627498529
2	2677	481.409196775009	0
2	2682	481.896506116578	0
2	2687	482.634952367216	0
2	2692	483.595809227067	0
2	2697	483.799762809584	0
2	2702	484.44733018212	0
2	2707	487.517532893476	0
2	2712	489.580071109264	0
2	2717	490.399799974504	0
2	2723	493.013175645654	0
2	2728	494.204348230943	0
2	2735	495.969390296175	0
2	2738	496.15763566023	0.080440638485
2	2745	497.314665761255	0
2	2748	497.50291112531	0.02643088431
2	2753	497.988273487429	0
2	2762	499.177909067647	0
2	2765	499.366154431702	0.188233773213
2	2768	499.554399795757	0.237371809647
2	2773	499.977237602207	0
2	2778	500.428131085052	0
2	2783	501.503506118328	0
2	2788	501.962041704586	0
2	2793	502.389054085397	0
2	2798	503.96574311931	0
2	2803	505.170167493354	0
2	2808	505.632969948155	0
2	2813	507.943418337492	0
2	2820	509.144399840177	0
2	2823	509.332645204232	0.061963186482
2	2828	509.591807829061	0
2	2833	511.492803936324	0
2	2838	512.776755963993	0
2	2843	516.164931324994	0
2	2848	518.650061688585	0
2	2853	519.020219570146	0
2	2860	520.4575246678	0
2	2865	520.645770031855	0.151720175675
2	2868	520.83401539591	0.173715284926
2	2874	521.616990797619	0
2	2881	525.490056477939	0
2	2884	525.678301841994	0.028365383994
2	2889	526.316515763874	0
2	2896	528.246265899762	0
2	2899	528.434511263817	0.16970496829
2	2906	529.440747093625	0
2	2909	529.62899245768	0.048135148982
2	2914	531.575259139497	0
2	2919	533.056049504702	0
2	2924	534.135448708575	0
2	2931	535.472217779721	0
2	2934	535.660463143776	0.024895214521
2	2939	536.809544073122	0
2	2944	537.375923181812	0
2	2951	538.668168210351	0
2	2954	538.856413574406	0.035953584122
2	2959	540.349176798888	0
2	2964	542.12801831233	0
2	2969	542.491144205703	0
2	2974	543.08810111421	0
2	2979	543.498363298739	0
2	2984	545.559961448438	0
2	2989	548.157997060864	0
2	2994	551.119284890377	0
2	2999	551.480995736584	0
2	3006	551.670728647806	0
2	3011	551.858974011861	0.174389495279
2	3014	552.047219375916	0.030417210615
2	3019	553.120397801718	0
2	3025	553.580280914653	0.007828647095
2	3030	554.129613545619	0
2	3039	555.898669411708	0
2	3044	556.086914775763	0.099844418155
2	3047	556.275160139818	0.218426723688
2	3050	556.463405503873	0.319345912194
2	3055	558.509029975851	0
2	3060	559.223589377491	0
2	3065	559.42639595945	0
2	3070	560.48150729147	0
2	3075	560.976207449702	0
2	3080	561.794950363225	0
2	3085	562.060390201278	0
2	3090	563.316022258554	0
2	3095	564.132668385538	0
2	3100	564.3464811972	0
2	3105	566.311803240151	0
2	3110	566.921863633835	0
2	3115	568.927432346582	0
2	3120	569.266869548346	0
2	3125	569.543830821417	0
2	3132	570.821010611437	0
2	3135	571.009255975492	0.035819991259
2	3140	571.294584134415	0
2	3145	573.387641130917	0
2	3150	573.72396210998	0
2	3155	574.181852519868	0
2	3162	574.745417126706	0
2	3165	574.933662490761	0.044412643648
2	3170	575.271943767555	0
2	3176	575.91569901286	0
2	3181	576.66686238896	0
2	3186	576.946379281557	0
2	3193	577.210460956698	0
2	3196	577.398706320753	0.036497187948
2	3201	578.230291888527	0
2	3206	579.416241857926	0
2	3213	579.657940461769	0
2	3216	579.846185825824	0.17921288654
2	3221	580.27849048175	0
2	3226	581.199887061011	0
2	3231	582.238022713698	0
2	3236	582.723791051397	0
2	3241	583.238956001763	0
2	3246	583.789094288445	0
2	3251	585.118034517675	0
2	3256	586.54077852866	0
2	3263	588.298613718614	0
2	3266	588.486859082669	0.122974438754
2	3273	589.428957526228	0
2	3276	589.617202890283	0.040001539496
2	3281	590.002225742538	0
2	3286	590.209302644964	0
2	3291	591.814400249489	0
2	3296	592.032281104646	0
2	3301	594.383769735805	0
2	3306	594.635025184801	0
2	3311	595.889149618784	0
2	3318	596.54600879948	0
2	3323	596.734254163535	0.164480770859
2	3327	597.19413727647	0.411734667838
2	3334	598.800477252892	0
2	3337	598.988722616947	0.087301200652
2	3342	599.445917662319	0
2	3347	600.079960265568	0
2	3352	600.989375231782	0
2	3357	601.205371113374	0
2	3362	601.401852635692	0
2	3369	602.056514463596	0
2	3372	602.244759827651	0.07984290214
2	3379	607.134695282475	0
2	3382	607.32294064653	0.034586630977
2	3387	610.231296224174	0
2	3392	611.676547901778	0
2	3397	613.349188576329	0
2	3402	616.738787495965	0
2	3407	617.176645251859	0
2	3412	618.956309654179	0
2	3417	620.071299477849	0
2	3422	620.54573408878	0
2	3427	620.979655556575	0
2	3432	622.418826734013	0
2	3437	624.157193643068	0
2	3442	626.787517191095	0
2	3447	627.444809068912	0
2	3452	630.302962548226	0
2	3457	632.327097014928	0
2	3462	633.402814136011	0
2	3469	633.819481506532	0
2	3472	634.007726870587	0.128808408829
2	3478	638.442506952848	0
2	3483	639.268253606988	0
2	3488	640.277104588105	0
2	3497	640.521523311856	0
2	3500	640.709768675911	0.138516264814
2	3503	640.898014039966	0.189599693519
2	3508	641.191775307043	0
2	3513	641.595588044727	0
2	3518	641.88909273086	0
2	3523	642.217325847846	0
2	3528	642.695355331783	0
2	3533	642.911254099395	0
2	3540	643.34091088647	0
2	3543	643.529156250525	0.087709235493
2	3550	646.297791716927	0
2	3553	646.486037080982	0.136788935899
2	3560	646.922145110056	0
2	3563	647.110390474111	0.006144804313
2	3568	647.539624362108	0
2	3573	648.057506388661	0
2	3578	651.856598236247	0
2	3583	656.936105505906	0
2	3588	658.199814400796	0
2	3593	659.255243266853	0
2	3598	661.694445857926	0
2	3603	661.925822587176	0
2	3608	662.481521204897	0
2	3613	663.081124287716	0
2	3618	664.095826850477	0
2	3623	671.467539510171	0
2	3631	671.927422623106	0.044261377067
2	3634	672.115667987161	0.017787559991
2	3639	672.41999349821	0
2	3644	674.145446192044	0
2	3649	674.376715783453	0
2	3656	675.292179195586	0
2	3659	675.480424559641	0.004631253287
2	3664	677.416400101431	0
2	3669	678.834325723539	0
2	3674	679.695961183361	0
2	3679	682.882632433195	0
2	3684	684.307789106313	0
2	3691	685.178449754481	0
2	3696	685.366695118536	0.011151632152
2	3699	685.554940482591	0.113212173695
2	3704	686.12343149939	0
2	3711	686.524388801159	0
2	3714	686.712634165214	0.069616770924
2	3721	688.978035776856	0
2	3724	689.166281140911	0.048268539356
2	3729	689.53810555327	0
2	3734	690.813236602485	0
2	3739	691.335972822664	0
2	3744	692.460694400439	0
2	3749	694.561095520888	0
2	3754	694.924881691573	0
2	3759	695.857781387453	0
2	3764	696.480670806857	0
2	3771	699.076077735778	0
2	3774	699.264323099833	0.005679126246
2	3780	699.724206212768	0.036047642307
2	3785	700.924133735372	0
2	3790	701.407626138561	0
2	3795	702.736917253374	0
2	3800	703.660222426482	0
2	3805	704.048237010336	0
2	3810	705.459189296211	0
2	3815	706.488350912966	0
2	3820	706.841085291481	0
2	3825	707.440869912159	0
2	3830	708.370190283814	0
2	3835	709.484087754664	0
2	3840	710.023142407272	0
2	3845	711.562460720808	0
2	3850	713.11778519351	0
2	3855	714.230506448045	0
2	3862	714.864356500647	0
2	3865	715.052601864702	0.105007504465
2	3870	717.915526247722	0
2	3875	719.252018642074	0
2	3880	719.77527713258	0
2	3885	721.265433342016	0
2	3892	722.86465752516	0
2	3895	723.052902889215	0.045128883511
2	3900	723.370906937595	0
2	3905	724.557265601381	0
2	3910	725.255966077784	0
2	3915	725.869580643758	0
2	3920	726.28859480021	0
2	3925	727.911334580374	0
2	3931	728.371217693309	0.060165915481
2	3936	729.063335143403	0
2	3943	729.771374154451	0
2	3946	729.959619518506	0.044334358126
2	3951	731.183535569922	0
2	3956	733.45442579651	0
2	3961	735.205115424843	0
2	3966	735.911724697066	0
2	3971	737.490145800114	0
2	3976	738.631364814089	0
2	3981	739.254769400643	0
2	3986	739.80221902261	0
2	3993	744.22974246126	0
2	3996	744.417987825315	0.1770778674
2	4001	744.840134576801	0
2	4006	746.273344493245	0
2	4011	747.905499429343	0
2	4016	751.445857117128	0
2	4021	754.602883773397	0
2	4026	755.914704851228	0
2	4031	756.931858688477	0
2	4036	757.283032341584	0
2	4041	759.370743355761	0
2	4046	759.614169158047	0
2	4051	763.920953388016	0
2	4056	764.42658511538	0
2	4061	765.040928383274	0
2	4066	765.517261146854	0
2	4071	767.335234355852	0
2	4076	769.539004966361	0
2	4086	770.475898521321	0
2	4089	770.664143885376	0.111067267155
2	4092	770.852389249431	0.209226303345
2	4097	775.138409871955	0
2	4102	775.719419381589	0
2	4107	776.01712171875	0
2	4112	776.306024568309	0
2	4117	777.163129344351	0
2	4122	778.224519495061	0
2	4127	778.993883829464	0
2	4134	780.138862045879	0
2	4137	780.327107409934	0.050469105181
2	4144	781.125139324344	0
2	4147	781.313384688399	0.051199264603
2	4152	781.780975601525	0
2	4157	783.16390166865	0
2	4162	784.799065766313	0
2	4167	785.487067435988	0
2	4172	786.871617257513	0
2	4177	787.290392207142	0
2	4182	789.166661261479	0
2	4187	790.343916462773	0
2	4192	790.590167083002	0
2	4197	793.60466741935	0
2	4202	794.203100549293	0
2	4211	794.611164952643	0
2	4214	794.799410316698	0.158585353286
2	4217	794.987655680753	0.317034147556
2	4222	795.888615567459	0
2	4229	796.471705348237	0
2	4233	796.931588461172	0.439490461665
2	4240	797.68050224406	0
2	4243	797.868747608115	0.106617988567
2	4248	799.184382632015	0
2	4253	800.280221309274	0
2	4258	800.602673845401	0
2	4265	801.211781309392	0
2	4268	801.400026673447	0.175256580587
2	4273	802.278372074985	0
2	4278	802.838344124488	0
2	4283	804.783922707832	0
2	4288	806.578160244455	0
2	4293	807.420965637045	0
2	4298	808.49796127226	0
2	4303	809.140663865501	0
2	4308	809.39373717699	0
2	4313	810.754505140375	0
2	4318	811.153804712738	0
2	4323	813.042591058595	0
2	4328	817.960206731119	0
2	4333	818.291340242206	0
2	4340	818.93899942942	0
2	4343	819.127244793475	0.081655358292
2	4348	821.859340980017	0
2	4355	823.588224877641	0
2	4358	823.776470241696	0.090698228373
2	4363	824.182027204932	0
2	4368	825.855786968051	0
2	4373	827.397063339132	0
2	4378	828.331164165442	0
2	4384	828.845886833023	0
2	4391	829.866957107662	0
2	4394	830.055202471717	0.017665338098
2	4399	833.775276977487	0
2	4404	834.175188829518	0
2	4409	835.061103820052	0
2	4414	835.870981973077	0
2	4421	837.341296537318	0
2	4424	837.529541901373	0.177334419066
2	4429	838.727317639357	0
2	4434	840.309273137678	0
2	4439	841.503875904845	0
2	4444	843.208273046804	0
2	4449	844.055577848983	0
2	4454	844.361315658543	0
2	4459	846.148090398413	0
2	4464	846.351522271625	0
2	4469	846.566636896124	0
2	4474	847.459403226968	0
2	4483	850.113591212818	0
2	4486	850.301836576873	0.181283240521
2	4491	850.490081940928	0.361603263665
2	4494	850.678327304983	0.048966666309
2	4499	851.707047224943	0
2	4504	852.524609723204	0
2	4511	853.705345925544	0
2	4514	853.893591289599	0.023801214691
2	4521	854.521449234292	0
2	4524	854.709694598347	0.165610723835
2	4529	855.075693647408	0
2	4537	855.751379248706	0
2	4540	855.939624612761	0.017097580893
2	4545	857.558292265769	0
2	4550	858.175723685824	0
2	4555	859.355275159039	0
2	4560	862.918007032427	0
2	4565	864.866523108331	0
2	4570	865.890857959402	0
2	4575	867.800589498143	0
2	4580	869.056524098414	0
2	4585	870.607708116846	0
2	4590	871.594167931292	0
2	4597	872.436422079128	0
2	4600	872.624667443183	0.071303114916
2	4605	873.012305072456	0
2	4610	874.814714132898	0
2	4615	877.645068275786	0
2	4622	879.536584830284	0
2	4627	879.724830194339	0.062402642405
2	4630	879.913075558394	0.064625422014
2	4639	880.178184733808	0
2	4642	880.366430097863	0.077736913326
2	4645	880.554675461918	0.259647983176
2	4650	881.320449431988	0
2	4655	881.642809527699	0
2	4660	883.407110007193	0
2	4665	883.628985281503	0
2	4672	883.871488890064	0
2	4675	884.059734254119	0.00025019969
2	4680	884.45536617726	0
2	4686	884.973229455016	0
2	4691	886.691610619063	0
2	4696	887.07840015239	0
2	4701	887.424524561776	0
2	4706	888.93116532259	0
2	4711	889.234161181942	0
2	4716	890.9480352086	0
2	4721	894.710551783933	0
2	4726	895.09866160431	0
2	4731	895.874797356843	0
2	4736	897.008475161451	0
2	4741	898.40477504095	0
2	4746	899.824412864029	0
2	4751	901.14552801088	0
2	4756	902.627276750027	0
2	4761	903.062831817622	0
2	4766	904.422677279853	0
2	4771	905.297345590768	0
2	4776	905.872479986574	0
2	4783	906.095041793158	0
2	4786	906.283287157213	0.168363249232
2	4793	909.298922382272	0
2	4796	909.487167746327	0.161505223661
2	4801	910.05646271538	0
2	4806	910.328215585188	0
2	4811	910.987964819028	0
2	4816	912.938352482236	0
2	4821	916.306712416896	0
2	4826	916.727598767359	0
2	4831	917.005106919631	0
2	4837	919.92018047158	0
2	4842	920.477867585473	0
2	4847	921.517019473133	0
2	4852	921.972352353324	0
2	4857	922.240954809155	0
2	4862	924.430265536775	0
2	4869	925.199055532667	0
2	4872	925.387300896722	0.164747349939
2	4877	926.655766660795	0
2	4884	927.208534428505	0
2	4887	927.39677979256	0.013411380862
2	4892	928.381837022808	0
2	4899	929.426466742678	0
2	4902	929.614712106733	0.084795448603
2	4907	930.080390055562	0
2	4914	931.678595307862	0
2	4917	931.866840671917	0.128014221043
2	4922	932.971795137242	0
2	4929	934.121597070986	0
2	4932	934.309842435041	0.175374284262
2	4939	934.954272360036	0
2	4942	935.142517724091	0.160444624757
2	4947	936.259003944459	0
2	4952	936.951574981162	0
2	4957	937.843529258661	0
2	4962	940.462023905801	0
2	4967	942.397237186446	0
2	4974	942.629897408406	0
2	4977	942.818142772461	0.034135438966
2	4982	943.32594683604	0
2	4988	944.643124484451	0
2	4993	945.323078646522	0
2	4998	945.683834195662	0
2	5003	948.385019015355	0
2	5008	948.733070335148	0
2	5013	951.568262610772	0
2	5018	951.886327031335	0
2	5023	952.64229252136	0
[...]
7	2813	507.943418337492	0
7	2820	509.144399840177	0
7	2823	509.332645204232	0
7	2828	509.591807829061	0
7	2833	511.492803936324	0
7	2838	512.776755963993	0
7	2843	516.164931324994	0
7	2848	518.650061688585	0
7	2853	519.020219570146	0
7	2860	520.4575246678	0
7	2865	520.645770031855	0
7	2868	520.83401539591	0
7	2874	521.616990797619	0
7	2881	525.490056477939	0
7	2884	525.678301841994	0
7	2889	526.316515763874	0
7	2896	528.246265899762	0
7	2899	528.434511263817	0
7	2906	529.440747093625	0
7	2909	529.62899245768	0
7	2914	531.575259139497	0
7	2919	533.056049504702	0
7	2924	534.135448708575	0
7	2931	535.472217779721	0
7	2934	535.660463143776	0
7	2939	536.809544073122	0
7	2944	537.375923181812	0
7	2951	538.668168210351	0
7	2954	538.856413574406	0
7	2959	540.349176798888	0
7	2964	542.12801831233	0
7	2969	542.491144205703	0
7	2974	543.08810111421	0
7	2979	543.498363298739	0
7	2984	545.559961448438	0
7	2989	548.157997060864	0
7	2994	551.119284890377	0
7	2999	551.480995736584	0
7	3006	551.670728647806	0
7	3011	551.858974011861	0
7	3014	552.047219375916	0
7	3019	553.120397801718	0
7	3025	553.580280914653	0
7	3030	554.129613545619	0
7	3039	555.898669411708	0
7	3044	556.086914775763	0
7	3047	556.275160139818	0
7	3050	556.463405503873	0
7	3055	558.509029975851	0
7	3060	559.223589377491	0
7	3065	559.42639595945	0
7	3070	560.48150729147	0
7	3075	560.976207449702	0
7	3080	561.794950363225	0
7	3085	562.060390201278	0
7	3090	563.316022258554	0
7	3095	564.132668385538	0
7	3100	564.3464811972	0
7	3105	566.311803240151	0
7	3110	566.921863633835	0
7	3115	568.927432346582	0
7	3120	569.266869548346	0
7	3125	569.543830821417	0
7	3132	570.821010611437	0
7	3135	571.009255975492	0
7	3140	571.294584134415	0
7	3145	573.387641130917	0
7	3150	573.72396210998	0
7	3155	574.181852519868	0
7	3162	574.745417126706	0
7	3165	574.933662490761	0
7	3170	575.271943767555	0
7	3176	575.91569901286	0
7	3181	576.66686238896	0
7	3186	576.946379281557	0
7	3193	577.210460956698	0
7	3196	577.398706320753	0
7	3201	578.230291888527	0
7	3206	579.416241857926	0
7	3213	579.657940461769	0
7	3216	579.846185825824	0
7	3221	580.27849048175	0
7	3226	581.199887061011	0
7	3231	582.238022713698	0
7	3236	582.723791051397	0
7	3241	583.238956001763	0
7	3246	583.789094288445	0
7	3251	585.118034517675	0
7	3256	586.54077852866	0
7	3263	588.298613718614	0
7	3266	588.486859082669	0
7	3273	589.428957526228	0
7	3276	589.617202890283	0
7	3281	590.002225742538	0
7	3286	590.209302644964	0
7	3291	591.814400249489	0
7	3296	592.032281104646	0
7	3301	594.383769735805	0
7	3306	594.635025184801	0
7	3311	595.889149618784	0
7	3318	596.54600879948	0
7	3323	596.734254163535	0
7	3327	597.19413727647	0
7	3334	598.800477252892	0
7	3337	598.988722616947	0
7	3342	599.445917662319	0
7	3347	600.079960265568	0
7	3352	600.989375231782	0
7	3357	601.205371113374	0
7	3362	601.401852635692	0
7	3369	602.056514463596	0
7	3372	602.244759827651	0
7	3379	607.134695282475	0
7	3382	607.32294064653	0
7	3387	610.231296224174	0
7	3392	611.676547901778	0
7	3397	613.349188576329	0
7	3402	616.738787495965	0
7	3407	617.176645251859	0
7	3412	618.956309654179	0
7	3417	620.071299477849	0
7	3422	620.54573408878	0
7	3427	620.979655556575	0
7	3432	622.418826734013	0
7	3437	624.157193643068	0
7	3442	626.787517191095	0
7	3447	627.444809068912	0
7	3452	630.302962548226	0
7	3457	632.327097014928	0
7	3462	633.402814136011	0
7	3469	633.819481506532	0
7	3472	634.007726870587	0
7	3478	638.442506952848	0
7	3483	639.268253606988	0
7	3488	640.277104588105	0
7	3497	640.521523311856	0
7	3500	640.709768675911	0
7	3503	640.898014039966	0
7	3508	641.191775307043	0
7	3513	641.595588044727	0
7	3518	641.88909273086	0
7	3523	642.217325847846	0
7	3528	642.695355331783	0
7	3533	642.911254099395	0
7	3540	643.34091088647	0
7	3543	643.529156250525	0
7	3550	646.297791716927	0
7	3553	646.486037080982	0
7	3560	646.922145110056	0
7	3563	647.110390474111	0
7	3568	647.539624362108	0
7	3573	648.057506388661	0
7	3578	651.856598236247	0
7	3583	656.936105505906	0
7	3588	658.199814400796	0
7	3593	659.255243266853	0
7	3598	661.694445857926	0
7	3603	661.925822587176	0
7	3608	662.481521204897	0
7	3613	663.081124287716	0
7	3618	664.095826850477	0
7	3623	671.467539510171	0
7	3631	671.927422623106	0
7	3634	672.115667987161	0
7	3639	672.41999349821	0
7	3644	674.145446192044	0
7	3649	674.376715783453	0
7	3656	675.292179195586	0
7	3659	675.480424559641	0
7	3664	677.416400101431	0
7	3669	678.834325723539	0
7	3674	679.695961183361	0
7	3679	682.882632433195	0
7	3684	684.307789106313	0
7	3691	685.178449754481	0
7	3696	685.366695118536	0
7	3699	685.554940482591	0
7	3704	686.12343149939	0
7	3711	686.524388801159	0
7	3714	686.712634165214	0
7	3721	688.978035776856	0
7	3724	689.166281140911	0
7	3729	689.53810555327	0
7	3734	690.813236602485	0
7	3739	691.335972822664	0
7	3744	692.460694400439	0
7	3749	694.561095520888	0
7	3754	694.924881691573	0
7	3759	695.857781387453	0
7	3764	696.480670806857	0
7	3771	699.076077735778	0
7	3774	699.264323099833	0
7	3780	699.724206212768	0
7	3785	700.924133735372	0
7	3790	701.407626138561	0
7	3795	702.736917253374	0
7	3800	703.660222426482	0
7	3805	704.048237010336	0
7	3810	705.459189296211	0
7	3815	706.488350912966	0
7	3820	706.841085291481	0
7	3825	707.440869912159	0
7	3830	708.370190283814	0
7	3835	709.484087754664	0
7	3840	710.023142407272	0
7	3845	711.562460720808	0
7	3850	713.11778519351	0
7	3855	714.230506448045	0
7	3862	714.864356500647	0
7	3865	715.052601864702	0
7	3870	717.915526247722	0
7	3875	719.252018642074	0
7	3880	719.77527713258	0
7	3885	721.265433342016	0
7	3892	722.86465752516	0
7	3895	723.052902889215	0
7	3900	723.370906937595	0
7	3905	724.557265601381	0
7	3910	725.255966077784	0
7	3915	725.869580643758	0
7	3920	726.28859480021	0
7	3925	727.911334580374	0
7	3931	728.371217693309	0
7	3936	729.063335143403	0
7	3943	729.771374154451	0
7	3946	729.959619518506	0
7	3951	731.183535569922	0
7	3956	733.45442579651	0
7	3961	735.205115424843	0
7	3966	735.911724697066	0
7	3971	737.490145800114	0
7	3976	738.631364814089	0
7	3981	739.254769400643	0
7	3986	739.80221902261	0
7	3993	744.22974246126	0
7	3996	744.417987825315	0
7	4001	744.840134576801	0
7	4006	746.273344493245	0
7	4011	747.905499429343	0
7	4016	751.445857117128	0
7	4021	754.602883773397	0
7	4026	755.914704851228	0
7	4031	756.931858688477	0
7	4036	757.283032341584	0
7	4041	759.370743355761	0
7	4046	759.614169158047	0
7	4051	763.920953388016	0
7	4056	764.42658511538	0
7	4061	765.040928383274	0
7	4066	765.517261146854	0
7	4071	767.335234355852	0
7	4076	769.539004966361	0
7	4086	770.475898521321	0
7	4089	770.664143885376	0
7	4092	770.852389249431	0
7	4097	775.138409871955	0
7	4102	775.719419381589	0
7	4107	776.01712171875	0
7	4112	776.306024568309	0
7	4117	777.163129344351	0
7	4122	778.224519495061	0
7	4127	778.993883829464	0
7	4134	780.138862045879	0
7	4137	780.327107409934	0
7	4144	781.125139324344	0
7	4147	781.313384688399	0
7	4152	781.780975601525	0
7	4157	783.16390166865	0
7	4162	784.799065766313	0
7	4167	785.487067435988	0
7	4172	786.871617257513	0
7	4177	787.290392207142	0
7	4182	789.166661261479	0
7	4187	790.343916462773	0
7	4192	790.590167083002	0
7	4197	793.60466741935	0
7	4202	794.203100549293	0
7	4211	794.611164952643	0
7	4214	794.799410316698	0
7	4217	794.987655680753	0
7	4222	795.888615567459	0
7	4229	796.471705348237	0
7	4233	796.931588461172	0
7	4240	797.68050224406	0
7	4243	797.868747608115	0
7	4248	799.184382632015	0
7	4253	800.280221309274	0
7	4258	800.602673845401	0
7	4265	801.211781309392	0
7	4268	801.400026673447	0
7	4273	802.278372074985	0
7	4278	802.838344124488	0
7	4283	804.783922707832	0
7	4288	806.578160244455	0
7	4293	807.420965637045	0
7	4298	808.49796127226	0
7	4303	809.140663865501	0
7	4308	809.39373717699	0
7	4313	810.754505140375	0
7	4318	811.153804712738	0
7	4323	813.042591058595	0
7	4328	817.960206731119	0
7	4333	818.291340242206	0
7	4340	818.93899942942	0
7	4343	819.127244793475	0
7	4348	821.859340980017	0
7	4355	823.588224877641	0
7	4358	823.776470241696	0
7	4363	824.182027204932	0
7	4368	825.855786968051	0
7	4373	827.397063339132	0
7	4378	828.331164165442	0
7	4384	828.845886833023	0
7	4391	829.866957107662	0
7	4394	830.055202471717	0
7	4399	833.775276977487	0
7	4404	834.175188829518	0
7	4409	835.061103820052	0
7	4414	835.870981973077	0
7	4421	837.341296537318	0
7	4424	837.529541901373	0
7	4429	838.727317639357	0
7	4434	840.309273137678	0
7	4439	841.503875904845	0
7	4444	843.208273046804	0
7	4449	844.055577848983	0
7	4454	844.361315658543	0
7	4459	846.148090398413	0
7	4464	846.351522271625	0
7	4469	846.566636896124	0
7	4474	847.459403226968	0
7	4483	850.113591212818	0
7	4486	850.301836576873	0
7	4491	850.490081940928	0
7	4494	850.678327304983	0
7	4499	851.707047224943	0
7	4504	852.524609723204	0
7	4511	853.705345925544	0
7	4514	853.893591289599	0
7	4521	854.521449234292	0
7	4524	854.709694598347	0
7	4529	855.075693647408	0
7	4537	855.751379248706	0
7	4540	855.939624612761	0
7	4545	857.558292265769	0
7	4550	858.175723685824	0
7	4555	859.355275159039	0
7	4560	862.918007032427	0
7	4565	864.866523108331	0
7	4570	865.890857959402	0
7	4575	867.800589498143	0
7	4580	869.056524098414	0
7	4585	870.607708116846	0
7	4590	871.594167931292	0
7	4597	872.436422079128	0
7	4600	872.624667443183	0
7	4605	873.012305072456	0
7	4610	874.814714132898	0
7	4615	877.645068275786	0
7	4622	879.536584830284	0
7	4627	879.724830194339	0
7	4630	879.913075558394	0
7	4639	880.178184733808	0
7	4642	880.366430097863	0
7	4645	880.554675461918	0
7	4650	881.320449431988	0
7	4655	881.642809527699	0
7	4660	883.407110007193	0
7	4665	883.628985281503	0
7	4672	883.871488890064	0
7	4675	884.059734254119	0
7	4680	884.45536617726	0
7	4686	884.973229455016	0
7	4691	886.691610619063	0
7	4696	887.07840015239	0
7	4701	887.424524561776	0
7	4706	888.93116532259	0
7	4711	889.234161181942	0
7	4716	890.9480352086	0
7	4721	894.710551783933	0
7	4726	895.09866160431	0
7	4731	895.874797356843	0
7	4736	897.008475161451	0
7	4741	898.40477504095	0
7	4746	899.824412864029	0
7	4751	901.14552801088	0
7	4756	902.627276750027	0
7	4761	903.062831817622	0
7	4766	904.422677279853	0
7	4771	905.297345590768	0
7	4776	905.872479986574	0
7	4783	906.095041793158	0
7	4786	906.283287157213	0
7	4793	909.298922382272	0
7	4796	909.487167746327	0
7	4801	910.05646271538	0
7	4806	910.328215585188	0
7	4811	910.987964819028	0
7	4816	912.938352482236	0
7	4821	916.306712416896	0
7	4826	916.727598767359	0
7	4831	917.005106919631	0
7	4837	919.92018047158	0
7	4842	920.477867585473	0
7	4847	921.517019473133	0
7	4852	921.972352353324	0
7	4857	922.240954809155	0
7	4862	924.430265536775	0
7	4869	925.199055532667	0
7	4872	925.387300896722	0
7	4877	926.655766660795	0
7	4884	927.208534428505	0
7	4887	927.39677979256	0
7	4892	928.381837022808	0
7	4899	929.426466742678	0
7	4902	929.614712106733	0
7	4907	930.080390055562	0
7	4914	931.678595307862	0
7	4917	931.866840671917	0
7	4922	932.971795137242	0
7	4929	934.121597070986	0
7	4932	934.309842435041	0
7	4939	934.954272360036	0
7	4942	935.142517724091	0
7	4947	936.259003944459	0
7	4952	936.951574981162	0
7	4957	937.843529258661	0
7	4962	940.462023905801	0
7	4967	942.397237186446	0
7	4974	942.629897408406	0
7	4977	942.818142772461	0
7	4982	943.32594683604	0
7	4988	944.643124484451	0
7	4993	945.323078646522	0
7	4998	945.683834195662	0
7	5003	948.385019015355	0
7	5008	948.733070335148	0
7	5013	951.568262610772	0
7	5018	951.886327031335	0
7	5023	952.64229252136	0
7	5028	954.637111339179	0
7	5033	955.96500950556	0
7	5038	956.252445161174	0
7	5043	957.304237838699	0
7	5048	959.057950268783	0
7	5053	960.411819378282	0
7	5058	962.14966682221	0
7	5065	962.699898100168	0
7	5068	962.888143464223	0
7	5073	964.15594043939	0
7	5078	964.548062613879	0
7	5083	965.398743381027	0
7	5088	965.922264280579	0
7	5093	967.111116833617	0
7	5098	970.072585366259	0
7	5103	971.429547365888	0
7	5108	973.411627147531	0
7	5113	975.820978948848	0
7	5118	976.213621552794	0
7	5123	976.760272564752	0
7	5128	977.790531407021	0
7	5133	978.005394190372	0
7	5139	978.790165474122	0
7	5144	979.952454862791	0
7	5151	980.790149441345	0
7	5154	980.9783948054	0
7	5159	981.928710869605	0
7	5164	982.707473094181	0
7	5169	983.025556794706	0
7	5174	983.450231023391	0
7	5179	984.729063526557	0
7	5184	985.802705726861	0
7	5189	986.398370966609	0
7	5194	986.854478585744	0
7	5201	987.743727901885	0
7	5206	987.93197326594	0
7	5209	988.120218629995	0
7	5214	988.803152595914	0
7	5219	990.786686143096	0
7	5224	993.021439989428	0
7	5231	994.303484738819	0
7	5234	994.491730102874	0
7	5239	996.579489624194	0
7	5244	997.742656212964	0
8	21	4.113148861429	0.00997613885
8	56	12.261659361957	0.022606948753
8	126	26.998245422188	0.077344172608
8	153	31.120231290963	0.254046835064
8	172	33.125076378837	0.055026995032
8	192	38.331474182195	0.172100757331
8	207	43.467755367541	0.092872911174
8	217	46.347441030198	0.105086151139
8	247	52.472711008946	0.027987749125
8	262	54.877916141329	0.126160715532
8	279	55.858148930323	0.131202682124
8	282	56.046394294378	0.293914126849
8	297	58.361563917657	0.185732335916
8	318	60.61267637687	0.048964040232
8	403	72.645082281763	0.05269876532
8	423	74.830805185416	0.075288731234
8	428	75.019050549471	0.099975895135
8	438	75.843161620304	0.030147349142
8	471	80.7924620386	0.098532658567
8	474	80.980707402655	0.219844125778
8	504	88.870244288331	0.111203750966
8	514	90.002859672337	0.078061882279
8	539	95.149668369975	0.041136865335
8	599	109.060895135153	0.038322160651
8	606	109.520778248088	0.327831072968
8	655	118.043989	0.020682079814
8	670	119.253023760814	0.097193689605
8	685	121.365628036694	0.181729844995
8	700	124.102939928976	0.105258063798
8	705	124.291185293031	0.173564207119
8	742	132.078963572874	0.171779468132
8	745	132.267208936929	0.230153165036
8	766	134.339965981209	0.08625320092
8	861	155.959522677043	0.026517567506
8	871	156.899910851119	0.04943219071
8	881	162.684511299733	0.035956661457
8	917	168.045082876172	0.063890822427
8	922	168.233328240227	0.021995228882
8	957	172.857109068658	0.07847227125
8	972	174.487314807884	0.138163292572
8	1022	184.159620546526	0.182055359107
8	1078	196.100118369277	0.157880980846
8	1113	200.550683237299	0.003429856956
8	1143	204.621978989117	0.058369293514
8	1148	204.810224353172	0.145834312546
8	1153	204.998469717227	0.102481847207
8	1173	209.363129059832	0.168439422623
8	1193	212.716029597699	0.105274003752
8	1210	216.81027598362	0.179206262717
8	1224	218.46392575234	0.074667711306
8	1239	219.070013392092	0.065378332768
8	1286	227.499414156433	0.098870480483
8	1289	227.687659520488	0.199974811506
8	1304	229.642589296538	0.157174582702
8	1354	242.777947040495	0.184477803063
8	1361	243.23783015343	0.226290048488
8	1400	253.424314879619	0.149771225404
8	1420	258.247229336801	0.173519756574
8	1435	259.227023049889	0.141113069543
8	1457	264.237716524819	0.128782456989
8	1460	264.425961888874	0.232982501164
8	1477	265.882933004222	0.185376511109
8	1480	266.071178368277	0.351037492512
8	1546	278.090908631471	0.068424617191
8	1595	284.817256782868	0.148823034874
8	1600	285.005502146923	0.214022298575
8	1603	285.193747510978	0.39325311488
8	1606	285.381992875033	0.528350748353
8	1667	300.498866429935	0.066784170178
8	1697	306.358515844272	0.086702074316
8	1702	306.546761208327	0.087507010216
8	1712	308.309074497758	0.052392607911
8	1779	320.557830979893	0.159760290735
8	1782	320.746076343948	0.27641183928
8	1787	320.934321708003	0.065824611367
8	1853	331.705659634979	0.18583585964
8	1865	332.669544385028	0.104915544593
8	1870	332.857789749083	0.271913226427
8	1873	333.046035113138	0.315760986576
8	1888	334.014432167414	0.040860645156
8	1908	340.375885326022	0.147625561983
8	1984	353.467000207493	0.171143813684
8	2009	355.653770369561	0.037853537846
8	2034	359.573983325441	0.010941917259
8	2064	362.979692122618	0.063906780409
8	2109	368.854514006589	0.035303701244
8	2145	373.541685873923	0.02129328538
8	2165	376.553959954068	0.008342570125
8	2175	377.047486487279	0.052001304549
8	2185	378.718774709645	0.029156457893
8	2195	380.595546229219	0.07663836957
8	2351	415.912095285809	0.1103252684
8	2381	422.598060731436	0.140054403564
8	2426	428.025440386766	0.187697654157
8	2429	428.213685750821	0.317533041663
8	2432	428.401931114876	0.420409353146
8	2452	434.930472422418	0.155131226932
8	2472	436.569398991978	0.034167238105
8	2487	442.912968320724	0.182415685921
8	2527	448.188224681021	0.136934608393
8	2552	451.673585819204	0.142487270573
8	2569	455.386151746592	0.214631841939
8	2588	460.009772456619	0.172641122625
8	2598	460.973567460499	0.164631211043
8	2643	472.380449812653	0.182437822903
8	2668	479.953401375024	0.118627498529
8	2734	495.969390296175	0.080440638485
8	2744	497.314665761255	0.02643088431
8	2761	499.177909067647	0.188233773213
8	2764	499.366154431702	0.237371809647
8	2819	509.144399840177	0.061963186482
8	2859	520.4575246678	0.151720175675
8	2864	520.645770031855	0.173715284926
8	2880	525.490056477939	0.028365383994
8	2895	528.246265899762	0.16970496829
8	2905	529.440747093625	0.048135148982
8	2930	535.472217779721	0.024895214521
8	2950	538.668168210351	0.035953584122
8	3005	551.670728647806	0.174389495279
8	3010	551.858974011861	0.030417210615
8	3022	553.392035550598	0.007828647095
8	3038	555.898669411708	0.099844418155
8	3043	556.086914775763	0.218426723688
8	3046	556.275160139818	0.319345912194
8	3131	570.821010611437	0.035819991259
8	3161	574.745417126706	0.044412643648
8	3192	577.210460956698	0.036497187948
8	3212	579.657940461769	0.17921288654
8	3262	588.298613718614	0.122974438754
8	3272	589.428957526228	0.040001539496
8	3317	596.54600879948	0.164480770859
8	3324	597.005891912415	0.411734667838
8	3333	598.800477252892	0.087301200652
8	3368	602.056514463596	0.07984290214
8	3378	607.134695282475	0.034586630977
8	3468	633.819481506532	0.128808408829
8	3496	640.521523311856	0.138516264814
8	3499	640.709768675911	0.189599693519
8	3539	643.34091088647	0.087709235493
8	3549	646.297791716927	0.136788935899
8	3559	646.922145110056	0.006144804313
8	3626	671.739177259051	0.044261377067
8	3630	671.927422623106	0.017787559991
8	3655	675.292179195586	0.004631253287
8	3690	685.178449754481	0.011151632152
8	3695	685.366695118536	0.113212173695
8	3710	686.524388801159	0.069616770924
8	3720	688.978035776856	0.048268539356
8	3770	699.076077735778	0.005679126246
8	3777	699.535960848713	0.036047642307
8	3861	714.864356500647	0.105007504465
8	3891	722.86465752516	0.045128883511
8	3928	728.182972329254	0.060165915481
8	3942	729.771374154451	0.044334358126
8	3992	744.22974246126	0.1770778674
8	4085	770.475898521321	0.111067267155
8	4088	770.664143885376	0.209226303345
8	4133	780.138862045879	0.050469105181
8	4143	781.125139324344	0.051199264603
8	4210	794.611164952643	0.158585353286
8	4213	794.799410316698	0.317034147556
8	4230	796.743343097117	0.439490461665
8	4239	797.68050224406	0.106617988567
8	4264	801.211781309392	0.175256580587
8	4339	818.93899942942	0.081655358292
8	4354	823.588224877641	0.090698228373
8	4390	829.866957107662	0.017665338098
8	4420	837.341296537318	0.177334419066
8	4482	850.113591212818	0.181283240521
8	4485	850.301836576873	0.361603263665
8	4490	850.490081940928	0.048966666309
8	4510	853.705345925544	0.023801214691
8	4520	854.521449234292	0.165610723835
8	4536	855.751379248706	0.017097580893
8	4596	872.436422079128	0.071303114916
8	4621	879.536584830284	0.062402642405
8	4626	879.724830194339	0.064625422014
8	4638	880.178184733808	0.077736913326
8	4641	880.366430097863	0.259647983176
8	4671	883.871488890064	0.00025019969
8	4782	906.095041793158	0.168363249232
8	4792	909.298922382272	0.161505223661
8	4868	925.199055532667	0.164747349939
8	4883	927.208534428505	0.013411380862
8	4898	929.426466742678	0.084795448603
8	4913	931.678595307862	0.128014221043
8	4928	934.121597070986	0.175374284262
8	4938	934.954272360036	0.160444624757
8	4973	942.629897408406	0.034135438966
8	5064	962.699898100168	0.114843254662
8	5150	980.790149441345	0.050171606582
8	5200	987.743727901885	0.182365936461
8	5205	987.93197326594	0.051779738662
8	5230	994.303484738819	0.169835534431

