version 2
run General-376-20240201-11:04:29-40057
attr configname General
attr datetime 20240201-11:04:29
attr experiment General
attr inifile main.ini
attr iterationvars "$0=1.0, $1=1.7, $2=30"
attr iterationvarsf 1.0,1.7,30-
attr measurement "$0=1.0, $1=1.7, $2=30"
attr network Rete
attr processid 40057
attr repetition 16
attr replication #16
attr resultdir results
attr runnumber 376
attr seedset 376
param Rete.lambda 1.0
param Rete.a 0.3s
param Rete.b 1.7s
param Rete.c 0.1s
param Rete.d 0.3s
param Rete.mu 3.0
param Rete.source2.interArrivalTime exponential(1s/lambda)
param Rete.source2.jobServiceTime exponential(1s/mu)
param Rete.source2.deadline uniform(a,b)
param Rete.server2.j 30
param Rete.server2.V uniform(c,d)

vector 0 Rete.passiveQueue queueLength:vector ETV
attr interpolationmode sample-hold
attr title "queue length, vector"
vector 1 Rete.sink lifeTime:vector ETV
attr interpolationmode none
attr title "lifetime of arrived jobs, vector"
attr unit s
vector 2 Rete.sink totalQueueingTime:vector ETV
attr interpolationmode none
attr title "the total time spent in queues by arrived jobs, vector"
attr unit s
vector 3 Rete.sink queuesVisited:vector ETV
attr interpolationmode none
attr title "the total number of queues visited by arrived jobs, vector"
vector 4 Rete.sink totalServiceTime:vector ETV
attr interpolationmode none
attr title "the total time spent  by arrived jobs, vector"
attr unit s
vector 5 Rete.sink totalDelayTime:vector ETV
attr interpolationmode none
attr title "the total time spent in delay nodes by arrived jobs, vector"
attr unit s
vector 6 Rete.sink delaysVisited:vector ETV
attr interpolationmode none
attr title "the total number of delays visited by arrived jobs, vector"
vector 7 Rete.sink generation:vector ETV
attr interpolationmode none
attr title "the generation of the arrived jobs, vector"
vector 8 Rete.passiveQueue queueingTime:vector ETV
attr interpolationmode none
attr title "queueing time at dequeue, vector"
attr unit s
0	0	0	0
0	15	6.292591682701	1
0	17	6.510110924213	2
0	18	6.74544059482	1
0	20	6.74544059482	0
0	31	9.785705028807	1
0	32	9.926074256705	0
0	36	10.27118835905	1
0	37	10.457254060431	0
0	46	11.759425728579	1
0	47	12.236634990166	0
0	69	16.45051526847	1
0	70	16.559894416994	0
0	94	22.6890046062	1
0	95	23.099680344455	0
0	102	23.68299553465	1
0	103	24.201469393364	0
0	115	29.603033118196	1
0	116	29.865104109573	0
0	128	32.616915886882	1
0	130	32.823543767068	2
0	131	33.045559844046	1
0	133	33.045559844046	0
0	154	38.240460985034	1
0	155	38.769564171254	0
0	162	40.966643694688	1
0	163	41.319469316956	0
0	175	44.258914148317	1
0	176	44.685792209222	0
0	189	47.44158591395	1
0	190	47.497796692245	0
0	199	51.153554199954	1
0	200	51.1627456095	0
0	209	52.414489929323	1
0	210	52.651952791791	0
0	227	56.545354035684	1
0	229	56.81810584944	2
0	230	56.963859106421	1
0	232	56.963859106421	0
0	245	58.703654239383	1
0	246	59.152198374476	0
0	273	65.542784149721	1
0	274	65.619077400303	0
0	278	66.119145266855	1
0	279	66.150257204029	0
0	288	67.403837319766	1
0	289	67.674321137966	0
0	306	70.091706833009	1
0	307	70.103433627912	0
0	326	73.998470676684	1
0	327	74.054002740555	0
0	346	80.546258896801	1
0	350	81.197315558419	2
0	351	81.230256624822	1
0	352	81.230256624822	0
0	360	82.48696642166	1
0	362	82.899920404197	2
0	363	82.981510154134	1
0	365	82.981510154134	0
0	368	83.26974554102	1
0	369	83.51268995786	0
0	376	88.10313741697	1
0	378	88.318843426429	2
0	379	88.482334690553	1
0	381	88.482334690553	0
0	384	88.669869609488	1
0	385	89.013514494279	0
0	397	91.848008718966	1
0	398	92.103588018195	0
0	420	100.238291591744	1
0	421	100.340839916893	0
0	435	105.415634170068	1
0	436	105.805420415325	0
0	443	106.315091349258	1
0	444	106.721847867972	0
0	456	109.563549100728	1
0	457	109.647272627303	0
0	466	111.004473867777	1
0	467	111.432705942049	0
0	474	111.685767347757	1
0	475	112.046297065861	0
0	487	113.335386526359	1
0	488	113.427275004884	0
0	497	115.770909582945	1
0	499	115.976586434001	2
0	500	116.053078301393	1
0	502	116.053078301393	0
0	520	120.281647450729	1
0	521	120.468898636873	0
0	525	120.58094738567	1
0	527	120.734359732935	2
0	529	120.808088702805	3
0	530	121.000078440599	2
0	532	121.000078440599	1
0	533	121.000078440599	0
0	536	121.48093770798	1
0	539	121.752476508847	0
0	550	126.562751859176	1
0	551	127.061320540924	0
0	558	127.877970159391	1
0	559	127.97820003641	0
0	563	128.024604794602	1
0	565	128.094351050823	2
0	567	128.106865437047	3
0	569	128.230770270744	4
0	570	128.509379840136	3
0	572	128.509379840136	2
0	573	128.509379840136	1
0	574	128.509379840136	0
0	605	134.905865763244	1
0	606	135.181718030179	0
0	613	136.758496709361	1
0	614	136.898298531069	0
0	618	137.245714277845	1
0	619	137.429478334795	0
0	633	139.963552491409	1
0	634	140.475286308199	0
0	641	140.988896295835	1
0	643	141.239394725655	2
0	644	141.354545988073	1
0	646	141.354545988073	0
0	649	141.450563423699	1
0	651	141.620546946749	2
0	652	141.885725791799	1
0	654	141.885725791799	0
0	680	150.055678026806	1
0	681	150.45904492741	0
0	693	152.247983686207	1
0	694	152.578242919417	0
0	716	159.546919100389	1
0	717	159.560183310491	0
0	721	159.587209017447	1
0	723	159.80436318436	2
0	725	160.017162256477	3
0	726	160.091363114217	2
0	728	160.091363114217	1
0	729	160.091363114217	0
0	734	160.65396179223	1
0	735	160.843761182465	0
0	743	163.01088974906	1
0	745	163.226774455342	2
0	746	163.500857863749	1
0	748	163.500857863749	0
0	754	164.501155749545	1
0	755	164.912461950887	0
0	762	165.577255608453	1
0	763	165.962040801583	0
0	770	166.971642771075	1
0	771	167.091798120516	0
0	775	167.301227935274	1
0	777	167.523068013625	2
0	778	167.622977924242	1
0	780	167.622977924242	0
0	783	168.138586134098	1
0	784	168.154157727968	0
0	788	168.400215451791	1
0	789	168.685337531694	0
0	801	172.188031798147	1
0	803	172.370958698774	2
0	804	172.543374727199	1
0	806	172.543374727199	0
0	809	172.547927564781	1
0	810	173.074554530925	0
0	817	175.27604535748	1
0	818	175.644965149798	0
0	830	179.007820302204	1
0	831	179.202020812121	0
0	845	181.703643784205	1
0	847	182.057674203894	2
0	848	182.173306491642	1
0	850	182.173306491642	0
0	863	185.426875228338	1
0	864	185.860521817462	0
0	881	193.24744392734	1
0	882	193.25558621307	0
0	901	201.806294943357	1
0	903	201.847386396864	2
0	904	202.108290515959	1
0	906	202.108290515959	0
0	953	213.863141771381	1
0	954	214.068763277416	0
0	973	218.491933534795	1
0	975	218.707183041725	2
0	976	218.763593168607	1
0	978	218.763593168607	0
0	986	222.548026653743	1
0	987	223.037301682508	0
0	1009	229.416037646208	1
0	1010	229.520066897902	0
0	1024	233.473920510454	1
0	1025	233.722811908958	0
0	1062	248.939264819684	1
0	1063	249.228304186054	0
0	1075	253.578463595021	1
0	1076	254.106932049864	0
0	1083	254.845979854259	1
0	1084	254.884248679349	0
0	1109	266.018786437142	1
0	1111	266.0595229705	2
0	1112	266.359688408805	1
0	1114	266.359688408805	0
0	1120	267.912742953129	1
0	1121	268.038876351113	0
0	1125	268.091956652306	1
0	1127	268.53753389656	2
0	1128	268.570056154839	1
0	1130	268.570056154839	0
0	1133	268.829680945646	1
0	1134	269.101235958565	0
0	1146	270.033726364743	1
0	1147	270.386525147202	0
0	1169	275.415874861535	1
0	1170	275.639561271784	0
0	1197	287.290137567847	1
0	1198	287.357189728196	0
0	1207	288.408026771875	1
0	1208	288.464086546581	0
0	1237	299.325380066778	1
0	1238	299.616748085406	0
0	1245	299.884415717216	1
0	1246	300.294466738958	0
0	1274	304.085931359715	1
0	1275	304.55480232011	0
0	1292	309.668119512896	1
0	1294	309.785962527991	2
0	1296	309.875729819379	3
0	1297	309.995147227976	2
0	1299	309.995147227976	1
0	1302	310.256595415916	2
0	1303	310.526327031702	1
0	1305	310.526327031702	0
0	1341	319.621083384568	1
0	1342	319.84841364883	0
0	1364	323.696812096132	1
0	1365	324.012669741108	0
0	1377	327.115443275464	1
0	1378	327.587186416023	0
0	1385	327.995956999726	1
0	1386	328.390819673732	0
0	1413	334.709060943377	1
0	1414	334.915821972337	0
0	1418	335.333842946744	1
0	1419	335.447001776063	0
0	1423	335.512330610242	1
0	1424	335.978181579789	0
0	1441	341.231357776364	1
0	1444	341.458779367386	0
0	1455	342.692428424036	1
0	1456	342.800029570367	0
0	1460	342.811504462171	1
0	1462	343.129807165128	2
0	1463	343.331209374093	1
0	1465	343.331209374093	0
0	1468	343.520494979241	1
0	1469	343.862389177819	0
0	1496	352.813636082888	1
0	1497	353.28790240962	0
0	1509	357.04831408631	1
0	1510	357.169934676621	0
0	1529	360.210732639349	1
0	1530	360.663789357	0
0	1537	363.024562979518	1
0	1538	363.216156257437	0
0	1542	363.7052991971	1
0	1543	363.747336061163	0
0	1557	365.674192746607	1
0	1558	365.956064259708	0
0	1565	367.096806489658	1
0	1566	367.118012830728	0
0	1580	369.58477348583	1
0	1581	369.928842041819	0
0	1593	371.38417405029	1
0	1594	371.483428385692	0
0	1608	374.73788597326	1
0	1610	374.878696502713	2
0	1611	375.097425219618	1
0	1613	375.097425219618	0
0	1621	376.440962717054	1
0	1622	376.61482051886	0
0	1645	380.676018950555	1
0	1647	380.759019032558	2
0	1648	380.904143559355	1
0	1650	380.904143559355	0
0	1653	381.111697527091	1
0	1654	381.435323363081	0
0	1661	381.757844452476	1
0	1662	382.09855145168	0
0	1669	382.726810559496	1
0	1670	382.7687066781	0
0	1674	383.095580501069	1
0	1675	383.299886481826	0
0	1689	385.913559500665	1
0	1690	386.294174468289	0
0	1712	389.970399107507	1
0	1713	390.232721800712	0
0	1720	390.841440285946	1
0	1721	391.098059962361	0
0	1733	392.223076720265	1
0	1734	392.694965973555	0
0	1741	393.3287738047	1
0	1743	393.403130877311	2
0	1744	393.513632202314	1
0	1747	394.04481200604	0
0	1754	394.148287093358	1
0	1755	394.618942079269	0
0	1777	399.18669877831	1
0	1778	399.486466310466	0
0	1785	401.256364759024	1
0	1787	401.739452076076	2
0	1788	401.779933808413	1
0	1790	401.779933808413	0
0	1793	401.868367141146	1
0	1795	401.974033671389	2
0	1797	401.99281579702	3
0	1798	402.311113612139	2
0	1800	402.311113612139	1
0	1801	402.311113612139	0
0	1814	404.472987750553	1
0	1815	404.535857131914	0
0	1833	408.861957477115	1
0	1835	408.900182048121	2
0	1836	409.325505459415	1
0	1838	409.325505459415	0
0	1869	418.532207436009	1
0	1870	418.652634942265	0
0	1874	418.740950620106	1
0	1875	419.183814745991	0
0	1897	425.511994944339	1
0	1898	425.858993120905	0
0	1920	434.364566326364	1
0	1922	434.76512898691	2
0	1923	434.8205382831	1
0	1925	434.8205382831	0
0	1948	443.196662283095	1
0	1949	443.720488143095	0
0	1961	447.588093713171	1
0	1962	447.840991537584	0
0	1974	448.999633929202	1
0	1975	449.387061353005	0
0	1987	451.324270293055	1
0	1990	451.717279275996	0
0	1996	452.324690609864	1
0	1997	452.735746280307	0
0	2009	455.441872235136	1
0	2010	455.865336014746	0
0	2042	464.669510714718	1
0	2043	465.056371617959	0
0	2050	470.159792497314	1
0	2052	470.360651139924	2
0	2053	470.57339881234	1
0	2055	470.57339881234	0
0	2061	471.402700927151	1
0	2062	471.701108355174	0
0	2074	474.379155299363	1
0	2075	474.500000717274	0
0	2109	483.479930426203	1
0	2110	483.642029828486	0
0	2114	484.081259134888	1
0	2115	484.173209632212	0
0	2124	485.113633498784	1
0	2125	485.387785659085	0
0	2137	486.24657646612	1
0	2138	486.63294492366	0
0	2150	488.887211417483	1
0	2151	489.099542624094	0
0	2158	489.478604573583	1
0	2159	489.732600767132	0
0	2173	491.624309844131	1
0	2174	491.628567386304	0
0	2177	491.876233070409	1
0	2178	492.15974719003	0
0	2185	495.844459947003	1
0	2186	495.875008299597	0
0	2200	499.137850993478	1
0	2201	499.22542203952	0
0	2215	500.78144800619	1
0	2216	501.101854134563	0
0	2228	508.489086088888	1
0	2229	508.709993125356	0
0	2236	511.756226578196	1
0	2237	512.019791545148	0
0	2244	512.463759865629	1
0	2245	512.692409952644	0
0	2252	513.518753320898	1
0	2253	513.968782653908	0
0	2275	520.960466819106	1
0	2276	521.098940847097	0
0	2300	525.285262691553	1
0	2301	525.476361109872	0
0	2315	529.764494253542	1
0	2316	529.845768255535	0
0	2320	530.147986739941	1
0	2321	530.376948059261	0
0	2333	536.645217349974	1
0	2335	537.092662882226	2
0	2336	537.108624254938	1
0	2338	537.108624254938	0
0	2341	537.436176546907	1
0	2342	537.639804058664	0
0	2352	538.618304524503	1
0	2354	538.892372866883	2
0	2355	538.98779683893	1
0	2357	538.98779683893	0
0	2360	539.097173733975	1
0	2361	539.518976642656	0
0	2393	551.001883411705	1
0	2394	551.105417704545	0
0	2423	560.660804574267	1
0	2424	560.842845481789	0
0	2428	561.156593366086	1
0	2429	561.374025285515	0
0	2436	563.483794433741	1
0	2437	563.715592827941	0
0	2444	564.553762933982	1
0	2445	565.075953406112	0
0	2457	567.250950124618	1
0	2458	567.261759799075	0
0	2482	571.786644766833	1
0	2484	572.014492562395	2
0	2485	572.137761515758	1
0	2487	572.137761515758	0
0	2495	573.419937561731	1
0	2497	573.632850021562	2
0	2498	573.775339947029	1
0	2500	573.775339947029	0
0	2503	573.779599241397	1
0	2505	574.157469765612	2
0	2506	574.306519750755	1
0	2508	574.306519750755	0
0	2527	580.009893506361	1
0	2528	580.247100604766	0
0	2545	582.276062564785	1
0	2546	582.645699583274	0
0	2553	584.366983273363	1
0	2554	584.64432837296	0
0	2581	593.942758534072	1
0	2583	594.143318838176	2
0	2584	594.384918133036	1
0	2586	594.384918133036	0
0	2602	597.423342628438	1
0	2603	597.649604262787	0
0	2610	598.915965464548	1
0	2611	599.25274965765	0
0	2618	599.538709214845	1
0	2619	599.849172686167	0
0	2631	604.322577424573	1
0	2633	604.667320206094	2
0	2634	604.780018660659	1
0	2636	604.780018660659	0
0	2644	605.809536815181	1
0	2645	606.174213028965	0
0	2652	606.846075545969	1
0	2653	606.968720548228	0
0	2657	607.420950144076	1
0	2659	607.481549228408	2
0	2660	607.499900351954	1
0	2663	608.03108015568	0
0	2675	609.419856543651	1
0	2676	609.881846122734	0
0	2683	610.385349552158	1
0	2684	610.557626740062	0
0	2688	611.027380338979	1
0	2689	611.088806543788	0
0	2698	611.74069833004	1
0	2699	612.200773321412	0
0	2717	616.474459479741	1
0	2718	616.941888450261	0
0	2725	617.957332543444	1
0	2726	618.253284663528	0
0	2738	621.270127763031	1
0	2739	621.396825369767	0
0	2773	633.450795122609	1
0	2774	633.787168446758	0
0	2786	637.730869762445	1
0	2787	637.755642746893	0
0	2791	638.229982244906	1
0	2792	638.286822550619	0
0	2806	640.964564121223	1
0	2807	641.225641523744	0
0	2824	645.492240645238	1
0	2825	645.964345949748	0
0	2832	647.495062144961	1
0	2833	647.717006062	0
0	2845	648.535542284186	1
0	2847	648.706393084039	2
0	2848	648.959388369125	1
0	2850	648.959388369125	0
0	2861	652.633463426432	1
0	2862	652.842832531965	0
0	2866	653.233573779386	1
0	2867	653.374012335691	0
0	2871	653.513425586809	1
0	2872	653.905192139417	0
0	2891	659.379469393775	1
0	2892	659.415229046944	0
0	2925	670.042538130519	1
0	2926	670.355196900143	0
0	2938	671.706336403661	1
0	2939	671.716248702527	0
0	2943	671.885367115479	1
0	2944	672.247428506253	0
0	2971	677.529253939917	1
0	2973	677.561700388615	2
0	2975	677.752479215855	3
0	2976	678.039008319036	2
0	2978	678.039008319036	1
0	2979	678.039008319036	0
0	2990	681.290655318151	1
0	2991	681.58635622771	0
0	2998	684.569205386298	1
0	2999	684.907769568725	0
0	3006	687.371441538368	1
0	3007	687.855473584584	0
0	3019	690.632832601714	1
0	3020	690.928028289789	0
0	3062	704.97842752675	1
0	3063	705.266480660467	0
0	3076	708.540002275002	1
0	3078	708.548410861192	2
0	3079	708.898964844855	1
0	3081	708.898964844855	0
0	3147	726.319079782834	1
0	3149	726.496777026058	2
0	3150	726.772174567805	1
0	3152	726.772174567805	0
0	3158	727.383940518381	1
0	3159	727.831250725265	0
0	3166	729.775913870467	1
0	3167	729.910676707276	0
0	3181	736.234092311112	1
0	3182	736.708909921174	0
0	3189	737.152100184856	1
0	3191	737.337969596611	2
0	3192	737.646270704496	1
0	3194	737.646270704496	0
0	3200	739.036851602612	1
0	3202	739.210883385012	2
0	3203	739.264471664638	1
0	3205	739.264471664638	0
0	3213	740.941754365005	1
0	3215	741.237532452548	2
0	3216	741.457862235206	1
0	3218	741.457862235206	0
0	3224	742.054400654278	1
0	3225	742.383873477968	0
0	3232	742.647722090354	1
0	3234	742.662238595318	2
0	3235	743.110179052815	1
0	3237	743.110179052815	0
0	3253	749.817399680991	1
0	3255	750.083368781945	2
0	3256	750.214294584381	1
0	3258	750.214294584381	0
0	3261	750.602070308144	1
0	3262	750.745474388107	0
0	3266	751.186295743302	1
0	3269	751.497872456355	0
0	3275	752.802715649715	1
0	3277	752.911547923259	2
0	3278	752.934479642915	1
0	3281	753.465659446641	0
0	3288	757.183020521301	1
0	3290	757.408251135322	2
0	3291	757.434171486816	1
0	3293	757.434171486816	0
0	3311	764.350709912334	1
0	3312	764.386779353661	0
0	3331	767.26055918338	1
0	3333	767.498253813157	2
0	3334	767.642749306788	1
0	3336	767.642749306788	0
0	3339	768.061217224983	1
0	3340	768.173929110514	0
0	3349	769.703359797487	1
0	3350	770.096485371147	0
0	3362	773.314074754898	1
0	3363	773.374087628647	0
0	3372	774.305611065079	1
0	3373	774.718001802063	0
0	3390	778.107835535907	1
0	3391	778.219828312888	0
0	3400	781.957590618907	1
0	3401	782.109514901142	0
0	3415	785.538357925139	1
0	3416	785.616926082991	0
0	3430	788.45219103954	1
0	3431	788.902701193258	0
0	3438	789.224086839314	1
0	3441	789.959703154662	0
0	3447	793.447162075785	1
0	3449	793.637484323917	2
0	3451	793.67702869878	3
0	3452	793.833690116132	2
0	3454	793.833690116132	1
0	3456	794.364869919858	0
0	3463	796.570508893	1
0	3464	797.090409979156	0
0	3471	798.239072269109	1
0	3472	798.358262393874	0
0	3476	798.70475302558	1
0	3477	798.8894421976	0
0	3496	804.176536445231	1
0	3497	804.307553844265	0
0	3501	804.379262313313	1
0	3503	804.542954865622	2
0	3505	804.712596802137	3
0	3506	804.838733647991	2
0	3508	804.838733647991	1
0	3509	804.838733647991	0
0	3532	811.65982859903	1
0	3534	811.813954696512	2
0	3535	811.835107265961	1
0	3538	812.366287069687	0
0	3545	813.813438678305	1
0	3547	813.884484844504	2
0	3548	813.989643658592	1
0	3552	814.193521874735	2
0	3553	814.520823462318	1
0	3555	814.520823462318	0
0	3581	820.399049572886	1
0	3582	820.443523423173	0
0	3586	820.458101590471	1
0	3587	820.974703226899	0
0	3594	821.802463014352	1
0	3595	822.299853369888	0
0	3602	824.846845229467	1
0	3604	825.077312720195	2
0	3605	825.368162104438	1
0	3607	825.368162104438	0
0	3613	828.446016302895	1
0	3614	828.789086296859	0
0	3621	830.551509806351	1
0	3623	830.661067092776	2
0	3624	830.678689518982	1
0	3628	830.71214711748	2
0	3629	831.209869322708	1
0	3631	831.209869322708	0
0	3643	838.444469928701	1
0	3645	838.704035008961	2
0	3646	838.802426324006	1
0	3648	838.802426324006	0
0	3661	841.224792266484	1
0	3662	841.546940197709	0
0	3684	846.436560358977	1
0	3685	846.914127469559	0
0	3692	849.903046345438	1
0	3693	849.964434278759	0
0	3707	852.024943138569	1
0	3708	852.291607684336	0
0	3730	857.329712900465	1
0	3732	857.353207232302	2
0	3733	857.488220607622	1
0	3736	858.019400411348	0
0	3748	860.395396204752	1
0	3749	860.764020798487	0
0	3761	863.503946534071	1
0	3762	863.780725843032	0
0	3789	870.407315752889	1
0	3790	870.553860432086	0
0	3794	870.959595721421	1
0	3795	871.085040235812	0
0	3804	872.475483775487	1
0	3806	872.716390826748	2
0	3807	872.866051263219	1
0	3809	872.866051263219	0
0	3812	872.88458123316	1
0	3816	873.536851204471	2
0	3817	873.618449331467	1
0	3818	873.618449331467	0
0	3846	884.286834604731	1
0	3847	884.662355341459	0
0	3869	890.516807568342	1
0	3871	890.632919755315	2
0	3872	890.85062561722	1
0	3874	890.85062561722	0
0	3890	895.11380527515	1
0	3891	895.582699219433	0
0	3913	901.613074656607	1
0	3914	902.079024276735	0
0	3921	902.810419130547	1
0	3922	903.270752070848	0
0	3929	903.787754236453	1
0	3930	903.879660441211	0
0	3939	905.518015876357	1
0	3940	905.74156160672	0
0	3947	906.125638577629	1
0	3948	906.42088563585	0
0	3955	910.082298892993	1
0	3956	910.328390977934	0
0	3973	913.82273206826	1
0	3974	913.864870052725	0
0	3988	915.993397838441	1
0	3990	916.174975436804	2
0	3991	916.342502839577	1
0	3993	916.342502839577	0
0	4002	917.718264484682	1
0	4003	917.802852216107	0
0	4007	917.83696950761	1
0	4009	917.934655460672	2
0	4011	918.193605556943	3
0	4012	918.334032019833	2
0	4014	918.334032019833	1
0	4015	918.334032019833	0
0	4018	918.467241981709	1
0	4020	918.547688326622	2
0	4022	918.821513314252	3
0	4023	918.865211823559	2
0	4025	918.865211823559	1
0	4026	918.865211823559	0
0	4029	918.879191190617	1
0	4031	918.918950145583	2
0	4032	919.396391627285	1
0	4034	919.396391627285	0
0	4040	919.983728509858	1
0	4041	920.206514835307	0
0	4053	922.388069383723	1
0	4054	922.653763296743	0
0	4081	930.690986267472	1
0	4082	930.894179470585	0
0	4086	930.947486806026	1
0	4087	931.425359274311	0
0	4094	932.245712202912	1
0	4095	932.766933744706	0
0	4112	937.153464051915	1
0	4113	937.442581348884	0
0	4120	938.660473306082	1
0	4122	938.792032529297	2
0	4124	938.808726914939	3
0	4125	939.087038068266	2
0	4127	939.087038068266	1
0	4128	939.087038068266	0
0	4144	942.776314574794	1
0	4146	943.222378139313	2
0	4147	943.222635735403	1
0	4149	943.222635735403	0
0	4152	943.37899180746	1
0	4154	943.692617786817	2
0	4155	943.753815539129	1
0	4157	943.753815539129	0
0	4160	943.873102655727	1
0	4161	944.284995342855	0
0	4168	945.691376909674	1
0	4170	946.129250513547	2
0	4171	946.131158963462	1
0	4173	946.131158963462	0
0	4196	950.778332332503	1
0	4197	951.1716870757	0
0	4206	952.68922444122	1
0	4207	952.798851751952	0
0	4210	952.886869592381	1
0	4211	953.330031555678	0
0	4228	956.371676682572	1
0	4230	956.586835384675	2
0	4231	956.843447464332	1
0	4233	956.843447464332	0
0	4254	964.837432146874	1
0	4255	965.22854849623	0
0	4267	967.021463928543	1
0	4268	967.169384106388	0
0	4272	967.283779798679	1
0	4273	967.700563910114	0
0	4280	968.56224264048	1
0	4281	968.732844375471	0
0	4295	973.773297553251	1
0	4296	974.078288284129	0
0	4323	978.982352354761	1
0	4325	979.174473063216	2
0	4326	979.321241541541	1
0	4328	979.321241541541	0
0	4331	979.485073945877	1
0	4332	979.852421345267	0
0	4349	983.253205911619	1
0	4350	983.578263907936	0
0	4367	988.090262687334	1
0	4368	988.325539979911	0
0	4387	991.995477361145	1
0	4388	992.006213361604	0
0	4391	992.266418709634	1
0	4392	992.53739316533	0
1	5	1.048982801729	0.531179803726
1	10	3.973079465641	0.531179803726
1	19	6.74544059482	0.531179803726
1	26	8.281840471394	0.531179803726
1	33	9.926074256705	0.531179803726
1	38	10.457254060431	0.671549031624
1	41	10.988433864157	0.717245505107
1	48	12.236634990166	0.531179803726
1	54	13.126644902163	0.531179803726
1	59	14.473712348758	0.531179803726
1	64	15.681301085265	0.531179803726
1	71	16.559894416994	0.531179803726
1	74	17.09107422072	0.64055895225
1	79	18.898180375424	0.531179803726
1	84	21.164007865374	0.531179803726
1	89	21.942321278702	0.531179803726
1	96	23.099680344455	0.531179803726
1	104	24.201469393364	0.531179803726
1	110	27.87939136156	0.531179803726
1	117	29.865104109573	0.531179803726
1	123	31.548711251565	0.531179803726
1	132	33.045559844046	0.531179803726
1	139	34.62422039233	0.531179803726
1	144	35.369999549265	0.531179803726
1	149	38.016156604786	0.531179803726
1	156	38.769564171254	0.531179803726
1	164	41.319469316956	0.531179803726
1	170	43.961573276747	0.531179803726
1	177	44.685792209222	0.531179803726
1	183	46.683695098611	0.531179803726
1	191	47.497796692245	0.531179803726
1	194	48.028976495971	0.587390582021
1	201	51.1627456095	0.531179803726
1	204	51.693925413226	0.540371213272
1	211	52.651952791791	0.531179803726
1	217	53.658100623176	0.531179803726
1	222	55.825357550975	0.531179803726
1	231	56.963859106421	0.531179803726
1	235	57.495038910147	0.676933060707
1	240	58.316273785733	0.531179803726
1	247	59.152198374476	0.531179803726
1	253	61.050308845432	0.531179803726
1	258	62.966796198072	0.531179803726
1	263	64.098302385038	0.531179803726
1	268	64.898677268795	0.531179803726
1	275	65.619077400303	0.531179803726
1	280	66.150257204029	0.607473054308
1	283	66.681437007755	0.5622917409
1	290	67.674321137966	0.531179803726
1	296	68.431531803496	0.531179803726
1	301	69.209066290766	0.531179803726
1	308	70.103433627912	0.531179803726
1	311	70.634613431638	0.542906598629
1	316	71.301835268296	0.531179803726
1	321	72.629600621297	0.531179803726
1	328	74.054002740555	0.531179803726
1	331	74.585182544281	0.586711867597
1	336	76.829852352196	0.531179803726
1	341	79.305700631508	0.531179803726
1	348	81.0090383603	0.531179803726
1	355	81.761436428548	0.564120870129
1	364	82.981510154134	0.531179803726
1	370	83.51268995786	0.612769553663
1	380	88.482334690553	0.531179803726
1	386	89.013514494279	0.69467106785
1	392	89.853319678211	0.531179803726
1	399	92.103588018195	0.531179803726
1	405	93.03451121719	0.531179803726
1	410	93.73440202697	0.531179803726
1	415	96.027006304658	0.531179803726
1	422	100.340839916893	0.531179803726
1	425	100.872019720619	0.633728128875
1	430	101.677574654785	0.531179803726
1	437	105.805420415325	0.531179803726
1	445	106.721847867972	0.531179803726
1	451	107.999038787732	0.531179803726
1	458	109.647272627303	0.531179803726
1	461	110.178452431029	0.614903330301
1	468	111.432705942049	0.531179803726
1	476	112.046297065861	0.531179803726
1	482	112.695817809606	0.531179803726
1	489	113.427275004884	0.531179803726
1	492	113.95845480861	0.623068282251
1	501	116.053078301393	0.531179803726
1	505	116.584258105119	0.607671671118
1	510	118.74263209953	0.531179803726
1	515	119.68811816957	0.531179803726
1	522	120.468898636873	0.531179803726
1	531	121.000078440599	0.71843098987
1	538	121.531258244325	0.72316954152
1	545	124.570490113065	0.531179803726
1	552	127.061320540924	0.531179803726
1	560	127.97820003641	0.531179803726
1	571	128.509379840136	0.631409680745
1	580	129.086859645198	0.531179803726
1	585	130.325599754241	0.531179803726
1	590	132.220445233837	0.531179803726
1	595	132.833840051429	0.531179803726
1	600	134.04961926116	0.531179803726
1	607	135.181718030179	0.531179803726
1	615	136.898298531069	0.531179803726
1	620	137.429478334795	0.670981625434
1	623	137.960658138521	0.714943860676
1	628	139.152881776847	0.531179803726
1	635	140.475286308199	0.531179803726
1	645	141.354545988073	0.531179803726
1	653	141.885725791799	0.646331066144
1	660	142.750497455951	0.531179803726
1	665	143.398522472355	0.531179803726
1	670	145.904658125554	0.531179803726
1	675	146.765794481881	0.531179803726
1	682	150.45904492741	0.531179803726
1	688	151.9559638982	0.531179803726
1	695	152.578242919417	0.531179803726
1	701	155.315915072131	0.531179803726
1	706	157.357124702573	0.531179803726
1	711	158.706428621995	0.531179803726
1	718	159.560183310491	0.531179803726
1	727	160.091363114217	0.544444013828
1	732	160.622542917943	0.605380661466
1	738	161.374940986191	0.720979193961
1	747	163.500857863749	0.531179803726
1	756	164.912461950887	0.531179803726
1	764	165.962040801583	0.531179803726
1	772	167.091798120516	0.531179803726
1	779	167.622977924242	0.651335153167
1	785	168.154157727968	0.631089714343
1	790	168.685337531694	0.546751397596
1	796	171.762487884239	0.531179803726
1	805	172.543374727199	0.531179803726
1	811	173.074554530925	0.703595832151
1	819	175.644965149798	0.531179803726
1	825	177.141251791125	0.531179803726
1	832	179.202020812121	0.531179803726
1	835	179.733200615847	0.725380313643
1	840	181.488392196684	0.531179803726
1	849	182.173306491642	0.531179803726
1	853	182.704486295368	0.646812091474
1	858	183.454148561439	0.531179803726
1	865	185.860521817462	0.531179803726
1	871	186.800168748723	0.531179803726
1	876	190.111475592893	0.531179803726
1	883	193.25558621307	0.531179803726
1	886	193.786766016796	0.539322089456
1	891	195.899328701999	0.531179803726
1	896	196.637181465366	0.531179803726
1	905	202.108290515959	0.531179803726
1	912	202.798981877436	0.531179803726
1	917	204.201336756868	0.531179803726
1	922	205.712218433056	0.531179803726
1	928	206.770042933926	0.531179803726
1	933	207.772479677133	0.531179803726
1	938	210.374217248193	0.531179803726
1	943	212.457867483454	0.531179803726
1	948	213.328944587558	0.531179803726
1	955	214.068763277416	0.531179803726
1	958	214.599943081142	0.736801309761
1	963	215.74425725897	0.531179803726
1	968	217.512498569567	0.531179803726
1	977	218.763593168607	0.531179803726
1	981	219.294772972333	0.587589930608
1	988	223.037301682508	0.531179803726
1	994	225.713868301895	0.531179803726
1	999	226.722102877251	0.531179803726
1	1004	227.670518503449	0.531179803726
1	1011	229.520066897902	0.531179803726
1	1014	230.051246701628	0.63520905542
1	1019	231.673586911112	0.531179803726
1	1026	233.722811908958	0.531179803726
1	1032	234.601708829782	0.531179803726
1	1037	238.333711818102	0.531179803726
1	1042	239.590886149036	0.531179803726
1	1047	244.398362985578	0.531179803726
1	1052	245.239499569253	0.531179803726
1	1057	247.094661772281	0.531179803726
1	1064	249.228304186054	0.531179803726
1	1070	250.127307450531	0.531179803726
1	1077	254.106932049864	0.531179803726
1	1085	254.884248679349	0.531179803726
1	1088	255.415428483075	0.569448628816
1	1094	256.908514576669	0.531179803726
1	1099	261.563902940754	0.531179803726
1	1104	263.038508258378	0.531179803726
1	1113	266.359688408805	0.531179803726
1	1122	268.038876351113	0.531179803726
1	1129	268.570056154839	0.65731320171
1	1135	269.101235958565	0.563702062005
1	1141	269.809383571924	0.531179803726
1	1148	270.386525147202	0.531179803726
1	1154	272.810265192664	0.531179803726
1	1159	273.716598941081	0.531179803726
1	1164	274.430533705679	0.531179803726
1	1171	275.639561271784	0.531179803726
1	1177	278.016271173884	0.531179803726
1	1182	282.687593000257	0.531179803726
1	1187	283.62153410753	0.531179803726
1	1192	284.188563950264	0.531179803726
1	1199	287.357189728196	0.531179803726
1	1202	287.888369531922	0.598231964075
1	1209	288.464086546581	0.531179803726
1	1212	288.995266350307	0.587239578432
1	1217	292.385593596217	0.531179803726
1	1222	295.73795298053	0.531179803726
1	1227	297.212900583705	0.531179803726
1	1232	298.742615004516	0.531179803726
1	1239	299.616748085406	0.531179803726
1	1247	300.294466738958	0.531179803726
1	1253	301.883393203386	0.531179803726
1	1258	302.433287387339	0.531179803726
1	1263	303.120036344534	0.531179803726
1	1269	303.955067861563	0.531179803726
1	1276	304.55480232011	0.531179803726
1	1282	305.119072410183	0.531179803726
1	1287	309.190598085784	0.531179803726
1	1298	309.995147227976	0.531179803726
1	1304	310.526327031702	0.740364503711
1	1311	311.104196268892	0.531179803726
1	1316	311.686290522096	0.531179803726
1	1321	312.694787505153	0.531179803726
1	1326	314.059322153417	0.531179803726
1	1331	315.845825821267	0.531179803726
1	1336	318.602563646429	0.531179803726
1	1343	319.84841364883	0.531179803726
1	1349	321.002102128041	0.531179803726
1	1354	322.373931009004	0.531179803726
1	1359	323.37492709903	0.531179803726
1	1366	324.012669741108	0.531179803726
1	1372	325.503205505696	0.531179803726
1	1379	327.587186416023	0.531179803726
1	1387	328.390819673732	0.531179803726
1	1393	329.711858626668	0.531179803726
1	1398	330.532219098678	0.531179803726
1	1403	331.771080962458	0.531179803726
1	1408	332.787844932062	0.531179803726
1	1415	334.915821972337	0.531179803726
1	1420	335.447001776063	0.737940832686
1	1425	335.978181579789	0.644338633045
1	1431	339.213062433049	0.531179803726
1	1436	339.969226371197	0.531179803726
1	1443	341.237561102864	0.531179803726
1	1450	342.210161058898	0.531179803726
1	1457	342.800029570367	0.531179803726
1	1464	343.331209374093	0.638780950057
1	1470	343.862389177819	0.732582012691
1	1476	345.388149135184	0.531179803726
1	1481	346.803849532632	0.531179803726
1	1486	348.953309881728	0.531179803726
1	1491	350.200975642569	0.531179803726
1	1498	353.28790240962	0.531179803726
1	1504	356.139166774354	0.531179803726
1	1511	357.169934676621	0.531179803726
1	1514	357.701114480347	0.652800394037
1	1519	358.81952805843	0.531179803726
1	1524	359.895175440566	0.531179803726
1	1531	360.663789357	0.531179803726
1	1539	363.216156257437	0.531179803726
1	1544	363.747336061163	0.722773081645
1	1547	364.278515864889	0.573216667789
1	1552	364.856863494257	0.531179803726
1	1559	365.956064259708	0.531179803726
1	1567	367.118012830728	0.531179803726
1	1570	367.649192634454	0.552386144796
1	1575	369.330885934408	0.531179803726
1	1582	369.928842041819	0.531179803726
1	1588	370.896106230908	0.531179803726
1	1595	371.483428385692	0.531179803726
1	1598	372.014608189418	0.630434139128
1	1603	374.421962535611	0.531179803726
1	1612	375.097425219618	0.531179803726
1	1619	376.393602254338	0.531179803726
1	1625	377.146000322586	0.705037605532
1	1630	377.851163652335	0.531179803726
1	1635	378.448223687071	0.531179803726
1	1640	379.330237591685	0.531179803726
1	1649	380.904143559355	0.531179803726
1	1655	381.435323363081	0.676304330523
1	1663	382.09855145168	0.531179803726
1	1671	382.7687066781	0.531179803726
1	1676	383.299886481826	0.57307592233
1	1679	383.831066285552	0.735485784483
1	1684	384.825888073781	0.531179803726
1	1691	386.294174468289	0.531179803726
1	1697	387.911172542297	0.531179803726
1	1702	388.548487084687	0.531179803726
1	1707	389.176580996181	0.531179803726
1	1714	390.232721800712	0.531179803726
1	1722	391.098059962361	0.531179803726
1	1728	392.1111734254	0.531179803726
1	1735	392.694965973555	0.531179803726
1	1745	393.513632202314	0.531179803726
1	1748	394.04481200604	0.71603820134
1	1756	394.618942079269	0.531179803726
1	1762	395.517330386533	0.531179803726
1	1767	396.199450775152	0.531179803726
1	1772	397.265168746551	0.531179803726
1	1779	399.486466310466	0.531179803726
1	1789	401.779933808413	0.531179803726
1	1799	402.311113612139	0.571661536063
1	1807	403.250338451985	0.531179803726
1	1812	404.314638867392	0.531179803726
1	1818	405.06703693564	0.594049185087
1	1823	405.682092685421	0.531179803726
1	1828	408.388837566132	0.531179803726
1	1837	409.325505459415	0.531179803726
1	1844	410.823374706698	0.531179803726
1	1849	413.649558848579	0.531179803726
1	1854	415.62401305384	0.531179803726
1	1859	416.56348099701	0.531179803726
1	1864	417.834423276677	0.531179803726
1	1871	418.652634942265	0.531179803726
1	1876	419.183814745991	0.651607309982
1	1882	421.087398058303	0.531179803726
1	1887	423.684127343555	0.531179803726
1	1892	425.242300023443	0.531179803726
1	1899	425.858993120905	0.531179803726
1	1905	428.424569481911	0.531179803726
1	1910	429.717415823218	0.531179803726
1	1915	434.13477661602	0.531179803726
1	1924	434.8205382831	0.531179803726
1	1928	435.351718086826	0.586589099916
1	1933	438.605469252152	0.531179803726
1	1938	442.238071501253	0.531179803726
1	1943	442.823137369809	0.531179803726
1	1950	443.720488143095	0.531179803726
1	1956	445.070974943055	0.531179803726
1	1963	447.840991537584	0.531179803726
1	1969	448.682598621503	0.531179803726
1	1976	449.387061353005	0.531179803726
1	1982	450.287189470635	0.531179803726
1	1989	451.496061011474	0.531179803726
1	1998	452.735746280307	0.531179803726
1	2004	454.803126042479	0.531179803726
1	2011	455.865336014746	0.531179803726
1	2017	456.688438117605	0.531179803726
1	2022	458.425907626344	0.531179803726
1	2027	460.024428736122	0.531179803726
1	2032	461.750381856438	0.531179803726
1	2037	462.563307511274	0.531179803726
1	2044	465.056371617959	0.531179803726
1	2054	470.57339881234	0.531179803726
1	2063	471.701108355174	0.531179803726
1	2069	473.758302423625	0.531179803726
1	2076	474.500000717274	0.531179803726
1	2079	475.031180521	0.652025221637
1	2084	476.184236380621	0.531179803726
1	2089	478.391173756002	0.531179803726
1	2094	481.247812994465	0.531179803726
1	2099	481.955393246857	0.531179803726
1	2104	482.962007716595	0.531179803726
1	2111	483.642029828486	0.531179803726
1	2116	484.173209632212	0.693279206009
1	2119	484.704389435938	0.62313030105
1	2126	485.387785659085	0.531179803726
1	2132	486.058239636296	0.531179803726
1	2139	486.63294492366	0.531179803726
1	2145	487.3037159687	0.531179803726
1	2152	489.099542624094	0.531179803726
1	2160	489.732600767132	0.531179803726
1	2166	490.706363634904	0.531179803726
1	2171	491.407349121782	0.531179803726
1	2179	492.15974719003	0.535437345899
1	2187	495.875008299597	0.531179803726
1	2190	496.406188103323	0.56172815632
1	2195	497.577530687443	0.531179803726
1	2202	499.22542203952	0.531179803726
1	2205	499.756601843246	0.618750849768
1	2210	500.309642522407	0.531179803726
1	2217	501.101854134563	0.531179803726
1	2223	504.784143482047	0.531179803726
1	2230	508.709993125356	0.531179803726
1	2238	512.019791545148	0.531179803726
1	2246	512.692409952644	0.531179803726
1	2254	513.968782653908	0.531179803726
1	2260	518.163576932486	0.531179803726
1	2265	519.114262931905	0.531179803726
1	2270	519.86742185297	0.531179803726
1	2277	521.098940847097	0.531179803726
1	2280	521.630120650823	0.669653831717
1	2285	523.01305268789	0.531179803726
1	2290	523.551228211896	0.531179803726
1	2295	524.090548791286	0.531179803726
1	2302	525.476361109872	0.531179803726
1	2305	526.007540913598	0.722278222045
1	2310	527.921886623795	0.531179803726
1	2317	529.845768255535	0.531179803726
1	2322	530.376948059261	0.612453805719
1	2328	534.233090764677	0.531179803726
1	2337	537.108624254938	0.531179803726
1	2343	537.639804058664	0.547141176438
1	2346	538.17098386239	0.734807315483
1	2356	538.98779683893	0.531179803726
1	2362	539.518976642656	0.626603775773
1	2368	540.425138777095	0.531179803726
1	2373	542.234263858965	0.531179803726
1	2378	544.154916172524	0.531179803726
1	2383	547.761643901565	0.531179803726
1	2388	549.970756854203	0.531179803726
1	2395	551.105417704545	0.531179803726
1	2398	551.636597508271	0.634714096566
1	2403	552.220398401837	0.531179803726
1	2408	552.993692007764	0.531179803726
1	2413	557.063003382667	0.531179803726
1	2418	559.227508200298	0.531179803726
1	2425	560.842845481789	0.531179803726
1	2430	561.374025285515	0.713220711248
1	2438	563.715592827941	0.531179803726
1	2446	565.075953406112	0.531179803726
1	2452	566.480999316295	0.531179803726
1	2459	567.261759799075	0.531179803726
1	2462	567.792939602801	0.541989478183
1	2467	569.218697655775	0.531179803726
1	2472	569.788434356324	0.531179803726
1	2477	570.858974153746	0.531179803726
1	2486	572.137761515758	0.531179803726
1	2490	572.668941319484	0.654448757089
1	2499	573.775339947029	0.531179803726
1	2507	574.306519750755	0.673669729193
1	2511	574.837699554481	0.680229788869
1	2516	575.858504170158	0.531179803726
1	2521	577.495160858483	0.531179803726
1	2529	580.247100604766	0.531179803726
1	2535	580.916059055669	0.531179803726
1	2540	581.953979167101	0.531179803726
1	2547	582.645699583274	0.531179803726
1	2555	584.64432837296	0.531179803726
1	2561	586.00398397461	0.531179803726
1	2566	589.71080962557	0.531179803726
1	2571	591.275284947318	0.531179803726
1	2576	592.090960712633	0.531179803726
1	2585	594.384918133036	0.531179803726
1	2592	595.07702238755	0.531179803726
1	2597	595.786131728979	0.531179803726
1	2604	597.649604262787	0.531179803726
1	2612	599.25274965765	0.531179803726
1	2620	599.849172686167	0.531179803726
1	2626	602.27107127685	0.531179803726
1	2635	604.780018660659	0.531179803726
1	2639	605.311198464385	0.643878258291
1	2646	606.174213028965	0.531179803726
1	2654	606.968720548228	0.531179803726
1	2661	607.499900351954	0.653824805985
1	2664	608.03108015568	0.610130011604
1	2670	608.975143163129	0.531179803726
1	2677	609.881846122734	0.531179803726
1	2685	610.557626740062	0.531179803726
1	2690	611.088806543788	0.70345699163
1	2693	611.619986347514	0.592606008535
1	2700	612.200773321412	0.531179803726
1	2706	612.855940120702	0.531179803726
1	2711	616.027623601528	0.531179803726
1	2719	616.941888450261	0.531179803726
1	2727	618.253284663528	0.531179803726
1	2733	619.301996931608	0.531179803726
1	2740	621.396825369767	0.531179803726
1	2743	621.928005173493	0.657877410462
1	2748	625.29561973175	0.531179803726
1	2753	626.469168710829	0.531179803726
1	2758	629.461517180439	0.531179803726
1	2763	630.784866901578	0.531179803726
1	2768	632.009005167367	0.531179803726
1	2775	633.787168446758	0.531179803726
1	2781	635.593993810454	0.531179803726
1	2788	637.755642746893	0.531179803726
1	2793	638.286822550619	0.555952788174
1	2796	638.818002354345	0.588020109439
1	2801	640.184670644432	0.531179803726
1	2808	641.225641523744	0.531179803726
1	2814	642.51659815877	0.531179803726
1	2819	643.10954170534	0.531179803726
1	2826	645.964345949748	0.531179803726
1	2834	647.717006062	0.531179803726
1	2840	648.273644179453	0.531179803726
1	2849	648.959388369125	0.531179803726
1	2856	651.28613075825	0.531179803726
1	2863	652.842832531965	0.531179803726
1	2868	653.374012335691	0.740548909259
1	2873	653.905192139417	0.671618360031
1	2879	655.498601865851	0.531179803726
1	2884	658.507260194238	0.531179803726
1	2889	659.194010782422	0.531179803726
1	2895	659.94640885067	0.566939456895
1	2900	663.677653804303	0.531179803726
1	2905	664.799532856598	0.531179803726
1	2910	665.64374929871	0.531179803726
1	2915	666.38683389285	0.531179803726
1	2920	668.786338583604	0.531179803726
1	2927	670.355196900143	0.531179803726
1	2933	670.962182464404	0.531179803726
1	2940	671.716248702527	0.531179803726
1	2945	672.247428506253	0.541092102592
1	2951	673.28523262296	0.531179803726
1	2956	675.195754687496	0.531179803726
1	2961	675.994276135924	0.531179803726
1	2966	677.140208176628	0.531179803726
1	2977	678.039008319036	0.531179803726
1	2985	680.789864342124	0.531179803726
1	2992	681.58635622771	0.531179803726
1	3000	684.907769568725	0.531179803726
1	3008	687.855473584584	0.531179803726
1	3014	688.732974059167	0.531179803726
1	3021	690.928028289789	0.531179803726
1	3027	694.795167574997	0.531179803726
1	3032	695.617217737749	0.531179803726
1	3037	699.263704743096	0.531179803726
1	3042	700.485196754566	0.531179803726
1	3047	701.639751429817	0.531179803726
1	3052	703.095342663112	0.531179803726
1	3057	703.828533141092	0.531179803726
1	3064	705.266480660467	0.531179803726
1	3070	707.682220869095	0.531179803726
1	3080	708.898964844855	0.531179803726
1	3087	709.602119456615	0.531179803726
1	3092	710.370221350875	0.531179803726
1	3097	711.166791596052	0.531179803726
1	3102	713.066128073979	0.531179803726
1	3107	715.572785450453	0.531179803726
1	3112	716.298940002165	0.531179803726
1	3117	716.843296841811	0.531179803726
1	3122	719.072353556149	0.531179803726
1	3127	719.947502439641	0.531179803726
1	3132	722.144315054703	0.531179803726
1	3137	723.528198135088	0.531179803726
1	3142	725.07731370134	0.531179803726
1	3151	726.772174567805	0.531179803726
1	3160	727.831250725265	0.531179803726
1	3168	729.910676707276	0.531179803726
1	3171	730.441856511002	0.665942640535
1	3176	734.112337681446	0.531179803726
1	3183	736.708909921174	0.531179803726
1	3193	737.646270704496	0.531179803726
1	3204	739.264471664638	0.531179803726
1	3208	739.795651468364	0.584768083352
1	3217	741.457862235206	0.531179803726
1	3226	742.383873477968	0.531179803726
1	3236	743.110179052815	0.531179803726
1	3243	746.62828750424	0.531179803726
1	3248	747.58842729899	0.531179803726
1	3257	750.214294584381	0.531179803726
1	3263	750.745474388107	0.662105606162
1	3268	751.276654191833	0.674583883689
1	3279	752.934479642915	0.531179803726
1	3282	753.465659446641	0.662943796926
1	3292	757.434171486816	0.531179803726
1	3296	757.965351290542	0.55710015522
1	3301	760.298065149921	0.531179803726
1	3306	760.952857156405	0.531179803726
1	3313	764.386779353661	0.531179803726
1	3316	764.917959157387	0.567249245053
1	3321	765.499682528233	0.531179803726
1	3326	766.224917157296	0.531179803726
1	3335	767.642749306788	0.531179803726
1	3341	768.173929110514	0.675675297357
1	3344	768.70510891424	0.643891689257
1	3351	770.096485371147	0.531179803726
1	3357	772.095271304432	0.531179803726
1	3364	773.374087628647	0.531179803726
1	3367	773.905267432373	0.591192677475
1	3374	774.718001802063	0.531179803726
1	3380	776.164862443926	0.531179803726
1	3385	777.239148237312	0.531179803726
1	3392	778.219828312888	0.531179803726
1	3395	778.751008116614	0.643172580707
1	3402	782.109514901142	0.531179803726
1	3405	782.640694704868	0.683104085961
1	3410	784.461600294784	0.531179803726
1	3417	785.616926082991	0.531179803726
1	3420	786.148105886717	0.609747961578
1	3425	788.33283074146	0.531179803726
1	3432	788.902701193258	0.531179803726
1	3440	789.73848489014	0.531179803726
1	3453	793.833690116132	0.531179803726
1	3457	794.364869919858	0.727385595941
1	3465	797.090409979156	0.531179803726
1	3473	798.358262393874	0.531179803726
1	3478	798.8894421976	0.650369928491
1	3481	799.420622001326	0.715868975746
1	3486	800.190628329101	0.531179803726
1	3491	800.754250393331	0.531179803726
1	3498	804.307553844265	0.531179803726
1	3507	804.838733647991	0.66219720276
1	3512	805.369913451717	0.65731664958
1	3517	808.983008301539	0.531179803726
1	3522	810.13087676599	0.531179803726
1	3527	810.786331186137	0.531179803726
1	3536	811.835107265961	0.531179803726
1	3539	812.366287069687	0.706458470657
1	3549	813.989643658592	0.531179803726
1	3554	814.520823462318	0.707384784013
1	3561	815.515360892309	0.531179803726
1	3566	816.825507093011	0.531179803726
1	3571	817.446266642004	0.531179803726
1	3576	819.4452397946	0.531179803726
1	3583	820.443523423173	0.531179803726
1	3588	820.974703226899	0.575653654013
1	3596	822.299853369888	0.531179803726
1	3606	825.368162104438	0.531179803726
1	3615	828.789086296859	0.531179803726
1	3625	830.678689518982	0.531179803726
1	3630	831.209869322708	0.658359516357
1	3637	832.780090331701	0.531179803726
1	3647	838.802426324006	0.531179803726
1	3651	839.333606127732	0.629571118771
1	3656	840.913948293465	0.531179803726
1	3663	841.546940197709	0.531179803726
1	3669	843.084479462076	0.531179803726
1	3674	845.088559765345	0.531179803726
1	3679	845.786360325562	0.531179803726
1	3686	846.914127469559	0.531179803726
1	3694	849.964434278759	0.531179803726
1	3697	850.495614082485	0.592567737047
1	3702	851.245826866698	0.531179803726
1	3709	852.291607684336	0.531179803726
1	3715	854.633604203049	0.531179803726
1	3720	855.545949033316	0.531179803726
1	3725	856.392550806861	0.531179803726
1	3734	857.488220607622	0.531179803726
1	3737	858.019400411348	0.689687510883
1	3743	859.304252814017	0.531179803726
1	3750	860.764020798487	0.531179803726
1	3756	862.51119253251	0.531179803726
1	3763	863.780725843032	0.531179803726
1	3769	864.554184775236	0.531179803726
1	3774	865.897309627762	0.531179803726
1	3779	867.805448874792	0.531179803726
1	3784	869.385852567901	0.531179803726
1	3791	870.553860432086	0.531179803726
1	3796	871.085040235812	0.677724482923
1	3799	871.616220039538	0.656624318117
1	3808	872.866051263219	0.531179803726
1	3814	873.397231066945	0.680840240197
1	3821	874.149629135193	0.612777930722
1	3826	876.009765398742	0.531179803726
1	3831	877.002466701494	0.531179803726
1	3836	882.6185623286	0.531179803726
1	3841	883.571295511548	0.531179803726
1	3848	884.662355341459	0.531179803726
1	3854	885.9943530096	0.531179803726
1	3859	886.931566223374	0.531179803726
1	3864	887.740662051387	0.531179803726
1	3873	890.85062561722	0.531179803726
1	3880	892.031471536174	0.531179803726
1	3885	893.10171910279	0.531179803726
1	3892	895.582699219433	0.531179803726
1	3898	897.190142873334	0.531179803726
1	3903	900.533520658009	0.531179803726
1	3908	901.460373224481	0.531179803726
1	3915	902.079024276735	0.531179803726
1	3923	903.270752070848	0.531179803726
1	3931	903.879660441211	0.531179803726
1	3934	904.410840244937	0.623086008484
1	3941	905.74156160672	0.531179803726
1	3949	906.42088563585	0.531179803726
1	3957	910.328390977934	0.531179803726
1	3963	911.399739123721	0.531179803726
1	3968	913.315505443773	0.531179803726
1	3975	913.864870052725	0.531179803726
1	3978	914.396049856451	0.573317788191
1	3983	915.067969297831	0.531179803726
1	3992	916.342502839577	0.531179803726
1	3996	916.873682643303	0.698707206499
1	4004	917.802852216107	0.531179803726
1	4013	918.334032019833	0.615767535151
1	4024	918.865211823559	0.671606266616
1	4033	919.396391627285	0.574878313033
1	4042	920.206514835307	0.531179803726
1	4048	920.775815127889	0.531179803726
1	4055	922.653763296743	0.531179803726
1	4061	927.25951771599	0.531179803726
1	4066	927.994100566287	0.531179803726
1	4071	929.304305494065	0.531179803726
1	4076	930.167286107623	0.531179803726
1	4083	930.894179470585	0.531179803726
1	4088	931.425359274311	0.734373006839
1	4096	932.766933744706	0.531179803726
1	4102	935.214517024067	0.531179803726
1	4107	936.138957796914	0.531179803726
1	4114	937.442581348884	0.531179803726
1	4126	939.087038068266	0.531179803726
1	4134	940.864191714372	0.531179803726
1	4139	942.242737273546	0.531179803726
1	4148	943.222635735403	0.531179803726
1	4156	943.753815539129	0.531437399816
1	4162	944.284995342855	0.592377556038
1	4172	946.131158963462	0.531179803726
1	4176	946.662338767188	0.533088253641
1	4181	948.070160124217	0.531179803726
1	4186	948.991511935394	0.531179803726
1	4191	949.845300754598	0.531179803726
1	4198	951.1716870757	0.531179803726
1	4204	952.57763348743	0.531179803726
1	4212	953.330031555678	0.640807114458
1	4218	954.48097317834	0.531179803726
1	4223	955.32577905822	0.531179803726
1	4232	956.843447464332	0.531179803726
1	4239	957.913890709568	0.531179803726
1	4244	961.677034519416	0.531179803726
1	4249	964.616667704618	0.531179803726
1	4256	965.22854849623	0.531179803726
1	4262	966.555197834783	0.531179803726
1	4269	967.169384106388	0.531179803726
1	4274	967.700563910114	0.679099981571
1	4282	968.732844375471	0.531179803726
1	4285	969.264024179197	0.701781538717
1	4290	973.141462564743	0.531179803726
1	4297	974.078288284129	0.531179803726
1	4303	974.875658763777	0.531179803726
1	4308	975.476449999686	0.531179803726
1	4313	976.139413281832	0.531179803726
1	4318	978.309094442171	0.531179803726
1	4327	979.321241541541	0.531179803726
1	4333	979.852421345267	0.677948282051
1	4339	980.496797591965	0.531179803726
1	4344	981.769669341555	0.531179803726
1	4351	983.578263907936	0.531179803726
1	4357	984.78590357427	0.531179803726
1	4362	986.229743373633	0.531179803726
1	4369	988.325539979911	0.531179803726
1	4375	988.892339086986	0.531179803726
1	4380	989.59697321803	0.531179803726
1	4385	991.784995097082	0.531179803726
1	4393	992.53739316533	0.541915804185
1	4399	994.868615529303	0.531179803726
1	4404	996.359043535728	0.531179803726
1	4409	997.000143341338	0.531179803726
1	4414	998.885137552115	0.531179803726
2	5	1.048982801729	0
2	10	3.973079465641	0
2	19	6.74544059482	0
2	26	8.281840471394	0
2	33	9.926074256705	0
2	38	10.457254060431	0.140369227898
2	41	10.988433864157	0.186065701381
2	48	12.236634990166	0
2	54	13.126644902163	0
2	59	14.473712348758	0
2	64	15.681301085265	0
2	71	16.559894416994	0
2	74	17.09107422072	0.109379148524
2	79	18.898180375424	0
2	84	21.164007865374	0
2	89	21.942321278702	0
2	96	23.099680344455	0
2	104	24.201469393364	0
2	110	27.87939136156	0
2	117	29.865104109573	0
2	123	31.548711251565	0
2	132	33.045559844046	0
2	139	34.62422039233	0
2	144	35.369999549265	0
2	149	38.016156604786	0
2	156	38.769564171254	0
2	164	41.319469316956	0
2	170	43.961573276747	0
2	177	44.685792209222	0
2	183	46.683695098611	0
2	191	47.497796692245	0
2	194	48.028976495971	0.056210778295
2	201	51.1627456095	0
2	204	51.693925413226	0.009191409546
2	211	52.651952791791	0
2	217	53.658100623176	0
2	222	55.825357550975	0
2	231	56.963859106421	0
2	235	57.495038910147	0.145753256981
2	240	58.316273785733	0
2	247	59.152198374476	0
2	253	61.050308845432	0
2	258	62.966796198072	0
2	263	64.098302385038	0
2	268	64.898677268795	0
2	275	65.619077400303	0
2	280	66.150257204029	0.076293250582
2	283	66.681437007755	0.031111937174
2	290	67.674321137966	0
2	296	68.431531803496	0
2	301	69.209066290766	0
2	308	70.103433627912	0
2	311	70.634613431638	0.011726794903
2	316	71.301835268296	0
2	321	72.629600621297	0
2	328	74.054002740555	0
2	331	74.585182544281	0.055532063871
2	336	76.829852352196	0
2	341	79.305700631508	0
2	348	81.0090383603	0
2	355	81.761436428548	0.032941066403
2	364	82.981510154134	0
2	370	83.51268995786	0.081589749937
2	380	88.482334690553	0
2	386	89.013514494279	0.163491264124
2	392	89.853319678211	0
2	399	92.103588018195	0
2	405	93.03451121719	0
2	410	93.73440202697	0
2	415	96.027006304658	0
2	422	100.340839916893	0
2	425	100.872019720619	0.102548325149
2	430	101.677574654785	0
2	437	105.805420415325	0
2	445	106.721847867972	0
2	451	107.999038787732	0
2	458	109.647272627303	0
2	461	110.178452431029	0.083723526575
2	468	111.432705942049	0
2	476	112.046297065861	0
2	482	112.695817809606	0
2	489	113.427275004884	0
2	492	113.95845480861	0.091888478525
2	501	116.053078301393	0
2	505	116.584258105119	0.076491867392
2	510	118.74263209953	0
2	515	119.68811816957	0
2	522	120.468898636873	0
2	531	121.000078440599	0.187251186144
2	538	121.531258244325	0.191989737794
2	545	124.570490113065	0
2	552	127.061320540924	0
2	560	127.97820003641	0
2	571	128.509379840136	0.100229877019
2	580	129.086859645198	0
2	585	130.325599754241	0
2	590	132.220445233837	0
2	595	132.833840051429	0
2	600	134.04961926116	0
2	607	135.181718030179	0
2	615	136.898298531069	0
2	620	137.429478334795	0.139801821708
2	623	137.960658138521	0.18376405695
2	628	139.152881776847	0
2	635	140.475286308199	0
2	645	141.354545988073	0
2	653	141.885725791799	0.115151262418
2	660	142.750497455951	0
2	665	143.398522472355	0
2	670	145.904658125554	0
2	675	146.765794481881	0
2	682	150.45904492741	0
2	688	151.9559638982	0
2	695	152.578242919417	0
2	701	155.315915072131	0
2	706	157.357124702573	0
2	711	158.706428621995	0
2	718	159.560183310491	0
2	727	160.091363114217	0.013264210102
2	732	160.622542917943	0.07420085774
2	738	161.374940986191	0.189799390235
2	747	163.500857863749	0
2	756	164.912461950887	0
2	764	165.962040801583	0
2	772	167.091798120516	0
2	779	167.622977924242	0.120155349441
2	785	168.154157727968	0.099909910617
2	790	168.685337531694	0.01557159387
2	796	171.762487884239	0
2	805	172.543374727199	0
2	811	173.074554530925	0.172416028425
2	819	175.644965149798	0
2	825	177.141251791125	0
2	832	179.202020812121	0
2	835	179.733200615847	0.194200509917
2	840	181.488392196684	0
2	849	182.173306491642	0
2	853	182.704486295368	0.115632287748
2	858	183.454148561439	0
2	865	185.860521817462	0
2	871	186.800168748723	0
2	876	190.111475592893	0
2	883	193.25558621307	0
2	886	193.786766016796	0.00814228573
2	891	195.899328701999	0
2	896	196.637181465366	0
2	905	202.108290515959	0
2	912	202.798981877436	0
2	917	204.201336756868	0
2	922	205.712218433056	0
2	928	206.770042933926	0
2	933	207.772479677133	0
2	938	210.374217248193	0
2	943	212.457867483454	0
2	948	213.328944587558	0
2	955	214.068763277416	0
2	958	214.599943081142	0.205621506035
2	963	215.74425725897	0
2	968	217.512498569567	0
2	977	218.763593168607	0
2	981	219.294772972333	0.056410126882
2	988	223.037301682508	0
2	994	225.713868301895	0
2	999	226.722102877251	0
2	1004	227.670518503449	0
2	1011	229.520066897902	0
2	1014	230.051246701628	0.104029251694
2	1019	231.673586911112	0
2	1026	233.722811908958	0
2	1032	234.601708829782	0
2	1037	238.333711818102	0
2	1042	239.590886149036	0
2	1047	244.398362985578	0
2	1052	245.239499569253	0
2	1057	247.094661772281	0
2	1064	249.228304186054	0
2	1070	250.127307450531	0
2	1077	254.106932049864	0
2	1085	254.884248679349	0
2	1088	255.415428483075	0.03826882509
2	1094	256.908514576669	0
2	1099	261.563902940754	0
2	1104	263.038508258378	0
2	1113	266.359688408805	0
2	1122	268.038876351113	0
2	1129	268.570056154839	0.126133397984
2	1135	269.101235958565	0.032522258279
2	1141	269.809383571924	0
2	1148	270.386525147202	0
2	1154	272.810265192664	0
2	1159	273.716598941081	0
2	1164	274.430533705679	0
2	1171	275.639561271784	0
2	1177	278.016271173884	0
2	1182	282.687593000257	0
2	1187	283.62153410753	0
2	1192	284.188563950264	0
2	1199	287.357189728196	0
2	1202	287.888369531922	0.067052160349
2	1209	288.464086546581	0
2	1212	288.995266350307	0.056059774706
2	1217	292.385593596217	0
2	1222	295.73795298053	0
2	1227	297.212900583705	0
2	1232	298.742615004516	0
2	1239	299.616748085406	0
2	1247	300.294466738958	0
2	1253	301.883393203386	0
2	1258	302.433287387339	0
2	1263	303.120036344534	0
2	1269	303.955067861563	0
2	1276	304.55480232011	0
2	1282	305.119072410183	0
2	1287	309.190598085784	0
2	1298	309.995147227976	0
2	1304	310.526327031702	0.209184699985
2	1311	311.104196268892	0
2	1316	311.686290522096	0
2	1321	312.694787505153	0
2	1326	314.059322153417	0
2	1331	315.845825821267	0
2	1336	318.602563646429	0
2	1343	319.84841364883	0
2	1349	321.002102128041	0
2	1354	322.373931009004	0
2	1359	323.37492709903	0
2	1366	324.012669741108	0
2	1372	325.503205505696	0
2	1379	327.587186416023	0
2	1387	328.390819673732	0
2	1393	329.711858626668	0
2	1398	330.532219098678	0
2	1403	331.771080962458	0
2	1408	332.787844932062	0
2	1415	334.915821972337	0
2	1420	335.447001776063	0.20676102896
2	1425	335.978181579789	0.113158829319
2	1431	339.213062433049	0
2	1436	339.969226371197	0
2	1443	341.237561102864	0
2	1450	342.210161058898	0
2	1457	342.800029570367	0
2	1464	343.331209374093	0.107601146331
2	1470	343.862389177819	0.201402208965
2	1476	345.388149135184	0
2	1481	346.803849532632	0
2	1486	348.953309881728	0
2	1491	350.200975642569	0
2	1498	353.28790240962	0
2	1504	356.139166774354	0
2	1511	357.169934676621	0
2	1514	357.701114480347	0.121620590311
2	1519	358.81952805843	0
2	1524	359.895175440566	0
2	1531	360.663789357	0
2	1539	363.216156257437	0
2	1544	363.747336061163	0.191593277919
2	1547	364.278515864889	0.042036864063
2	1552	364.856863494257	0
2	1559	365.956064259708	0
2	1567	367.118012830728	0
2	1570	367.649192634454	0.02120634107
2	1575	369.330885934408	0
2	1582	369.928842041819	0
2	1588	370.896106230908	0
2	1595	371.483428385692	0
2	1598	372.014608189418	0.099254335402
2	1603	374.421962535611	0
2	1612	375.097425219618	0
2	1619	376.393602254338	0
2	1625	377.146000322586	0.173857801806
2	1630	377.851163652335	0
2	1635	378.448223687071	0
2	1640	379.330237591685	0
2	1649	380.904143559355	0
2	1655	381.435323363081	0.145124526797
2	1663	382.09855145168	0
2	1671	382.7687066781	0
2	1676	383.299886481826	0.041896118604
2	1679	383.831066285552	0.204305980757
2	1684	384.825888073781	0
2	1691	386.294174468289	0
2	1697	387.911172542297	0
2	1702	388.548487084687	0
2	1707	389.176580996181	0
2	1714	390.232721800712	0
2	1722	391.098059962361	0
2	1728	392.1111734254	0
2	1735	392.694965973555	0
2	1745	393.513632202314	0
2	1748	394.04481200604	0.184858397614
2	1756	394.618942079269	0
2	1762	395.517330386533	0
2	1767	396.199450775152	0
2	1772	397.265168746551	0
2	1779	399.486466310466	0
2	1789	401.779933808413	0
2	1799	402.311113612139	0.040481732337
2	1807	403.250338451985	0
2	1812	404.314638867392	0
2	1818	405.06703693564	0.062869381361
2	1823	405.682092685421	0
2	1828	408.388837566132	0
2	1837	409.325505459415	0
2	1844	410.823374706698	0
2	1849	413.649558848579	0
2	1854	415.62401305384	0
2	1859	416.56348099701	0
2	1864	417.834423276677	0
2	1871	418.652634942265	0
2	1876	419.183814745991	0.120427506256
2	1882	421.087398058303	0
2	1887	423.684127343555	0
2	1892	425.242300023443	0
2	1899	425.858993120905	0
2	1905	428.424569481911	0
2	1910	429.717415823218	0
2	1915	434.13477661602	0
2	1924	434.8205382831	0
2	1928	435.351718086826	0.05540929619
2	1933	438.605469252152	0
2	1938	442.238071501253	0
2	1943	442.823137369809	0
2	1950	443.720488143095	0
2	1956	445.070974943055	0
2	1963	447.840991537584	0
2	1969	448.682598621503	0
2	1976	449.387061353005	0
2	1982	450.287189470635	0
2	1989	451.496061011474	0
2	1998	452.735746280307	0
2	2004	454.803126042479	0
2	2011	455.865336014746	0
2	2017	456.688438117605	0
2	2022	458.425907626344	0
2	2027	460.024428736122	0
2	2032	461.750381856438	0
2	2037	462.563307511274	0
2	2044	465.056371617959	0
2	2054	470.57339881234	0
2	2063	471.701108355174	0
2	2069	473.758302423625	0
2	2076	474.500000717274	0
2	2079	475.031180521	0.120845417911
2	2084	476.184236380621	0
2	2089	478.391173756002	0
2	2094	481.247812994465	0
2	2099	481.955393246857	0
2	2104	482.962007716595	0
2	2111	483.642029828486	0
2	2116	484.173209632212	0.162099402283
2	2119	484.704389435938	0.091950497324
2	2126	485.387785659085	0
2	2132	486.058239636296	0
2	2139	486.63294492366	0
2	2145	487.3037159687	0
2	2152	489.099542624094	0
2	2160	489.732600767132	0
2	2166	490.706363634904	0
2	2171	491.407349121782	0
2	2179	492.15974719003	0.004257542173
2	2187	495.875008299597	0
2	2190	496.406188103323	0.030548352594
2	2195	497.577530687443	0
2	2202	499.22542203952	0
2	2205	499.756601843246	0.087571046042
2	2210	500.309642522407	0
2	2217	501.101854134563	0
2	2223	504.784143482047	0
2	2230	508.709993125356	0
2	2238	512.019791545148	0
2	2246	512.692409952644	0
2	2254	513.968782653908	0
2	2260	518.163576932486	0
2	2265	519.114262931905	0
2	2270	519.86742185297	0
2	2277	521.098940847097	0
2	2280	521.630120650823	0.138474027991
2	2285	523.01305268789	0
2	2290	523.551228211896	0
2	2295	524.090548791286	0
2	2302	525.476361109872	0
2	2305	526.007540913598	0.191098418319
2	2310	527.921886623795	0
2	2317	529.845768255535	0
2	2322	530.376948059261	0.081274001993
2	2328	534.233090764677	0
2	2337	537.108624254938	0
2	2343	537.639804058664	0.015961372712
2	2346	538.17098386239	0.203627511757
2	2356	538.98779683893	0
2	2362	539.518976642656	0.095423972047
2	2368	540.425138777095	0
2	2373	542.234263858965	0
2	2378	544.154916172524	0
2	2383	547.761643901565	0
2	2388	549.970756854203	0
2	2395	551.105417704545	0
2	2398	551.636597508271	0.10353429284
2	2403	552.220398401837	0
2	2408	552.993692007764	0
2	2413	557.063003382667	0
2	2418	559.227508200298	0
2	2425	560.842845481789	0
2	2430	561.374025285515	0.182040907522
2	2438	563.715592827941	0
2	2446	565.075953406112	0
2	2452	566.480999316295	0
2	2459	567.261759799075	0
2	2462	567.792939602801	0.010809674457
2	2467	569.218697655775	0
2	2472	569.788434356324	0
2	2477	570.858974153746	0
2	2486	572.137761515758	0
2	2490	572.668941319484	0.123268953363
2	2499	573.775339947029	0
2	2507	574.306519750755	0.142489925467
2	2511	574.837699554481	0.149049985143
2	2516	575.858504170158	0
2	2521	577.495160858483	0
2	2529	580.247100604766	0
2	2535	580.916059055669	0
2	2540	581.953979167101	0
2	2547	582.645699583274	0
2	2555	584.64432837296	0
2	2561	586.00398397461	0
2	2566	589.71080962557	0
2	2571	591.275284947318	0
2	2576	592.090960712633	0
2	2585	594.384918133036	0
2	2592	595.07702238755	0
2	2597	595.786131728979	0
2	2604	597.649604262787	0
2	2612	599.25274965765	0
2	2620	599.849172686167	0
2	2626	602.27107127685	0
2	2635	604.780018660659	0
2	2639	605.311198464385	0.112698454565
2	2646	606.174213028965	0
2	2654	606.968720548228	0
2	2661	607.499900351954	0.122645002259
2	2664	608.03108015568	0.078950207878
2	2670	608.975143163129	0
2	2677	609.881846122734	0
2	2685	610.557626740062	0
2	2690	611.088806543788	0.172277187904
2	2693	611.619986347514	0.061426204809
2	2700	612.200773321412	0
2	2706	612.855940120702	0
2	2711	616.027623601528	0
2	2719	616.941888450261	0
2	2727	618.253284663528	0
2	2733	619.301996931608	0
2	2740	621.396825369767	0
2	2743	621.928005173493	0.126697606736
2	2748	625.29561973175	0
2	2753	626.469168710829	0
2	2758	629.461517180439	0
2	2763	630.784866901578	0
2	2768	632.009005167367	0
2	2775	633.787168446758	0
2	2781	635.593993810454	0
2	2788	637.755642746893	0
2	2793	638.286822550619	0.024772984448
2	2796	638.818002354345	0.056840305713
2	2801	640.184670644432	0
2	2808	641.225641523744	0
2	2814	642.51659815877	0
2	2819	643.10954170534	0
2	2826	645.964345949748	0
2	2834	647.717006062	0
2	2840	648.273644179453	0
2	2849	648.959388369125	0
2	2856	651.28613075825	0
2	2863	652.842832531965	0
2	2868	653.374012335691	0.209369105533
2	2873	653.905192139417	0.140438556305
2	2879	655.498601865851	0
2	2884	658.507260194238	0
2	2889	659.194010782422	0
2	2895	659.94640885067	0.035759653169
2	2900	663.677653804303	0
2	2905	664.799532856598	0
2	2910	665.64374929871	0
2	2915	666.38683389285	0
2	2920	668.786338583604	0
2	2927	670.355196900143	0
2	2933	670.962182464404	0
2	2940	671.716248702527	0
2	2945	672.247428506253	0.009912298866
2	2951	673.28523262296	0
2	2956	675.195754687496	0
2	2961	675.994276135924	0
2	2966	677.140208176628	0
2	2977	678.039008319036	0
2	2985	680.789864342124	0
2	2992	681.58635622771	0
2	3000	684.907769568725	0
2	3008	687.855473584584	0
2	3014	688.732974059167	0
2	3021	690.928028289789	0
2	3027	694.795167574997	0
2	3032	695.617217737749	0
2	3037	699.263704743096	0
2	3042	700.485196754566	0
2	3047	701.639751429817	0
2	3052	703.095342663112	0
2	3057	703.828533141092	0
2	3064	705.266480660467	0
2	3070	707.682220869095	0
2	3080	708.898964844855	0
2	3087	709.602119456615	0
2	3092	710.370221350875	0
2	3097	711.166791596052	0
2	3102	713.066128073979	0
2	3107	715.572785450453	0
2	3112	716.298940002165	0
2	3117	716.843296841811	0
2	3122	719.072353556149	0
2	3127	719.947502439641	0
2	3132	722.144315054703	0
2	3137	723.528198135088	0
2	3142	725.07731370134	0
2	3151	726.772174567805	0
2	3160	727.831250725265	0
2	3168	729.910676707276	0
2	3171	730.441856511002	0.134762836809
2	3176	734.112337681446	0
2	3183	736.708909921174	0
2	3193	737.646270704496	0
2	3204	739.264471664638	0
2	3208	739.795651468364	0.053588279626
2	3217	741.457862235206	0
2	3226	742.383873477968	0
2	3236	743.110179052815	0
2	3243	746.62828750424	0
2	3248	747.58842729899	0
2	3257	750.214294584381	0
2	3263	750.745474388107	0.130925802436
2	3268	751.276654191833	0.143404079963
2	3279	752.934479642915	0
2	3282	753.465659446641	0.1317639932
2	3292	757.434171486816	0
2	3296	757.965351290542	0.025920351494
2	3301	760.298065149921	0
2	3306	760.952857156405	0
2	3313	764.386779353661	0
2	3316	764.917959157387	0.036069441327
2	3321	765.499682528233	0
2	3326	766.224917157296	0
2	3335	767.642749306788	0
2	3341	768.173929110514	0.144495493631
2	3344	768.70510891424	0.112711885531
2	3351	770.096485371147	0
2	3357	772.095271304432	0
2	3364	773.374087628647	0
2	3367	773.905267432373	0.060012873749
2	3374	774.718001802063	0
2	3380	776.164862443926	0
2	3385	777.239148237312	0
2	3392	778.219828312888	0
2	3395	778.751008116614	0.111992776981
2	3402	782.109514901142	0
2	3405	782.640694704868	0.151924282235
2	3410	784.461600294784	0
2	3417	785.616926082991	0
2	3420	786.148105886717	0.078568157852
2	3425	788.33283074146	0
2	3432	788.902701193258	0
2	3440	789.73848489014	0
2	3453	793.833690116132	0
2	3457	794.364869919858	0.196205792215
2	3465	797.090409979156	0
2	3473	798.358262393874	0
2	3478	798.8894421976	0.119190124765
2	3481	799.420622001326	0.18468917202
2	3486	800.190628329101	0
2	3491	800.754250393331	0
2	3498	804.307553844265	0
2	3507	804.838733647991	0.131017399034
2	3512	805.369913451717	0.126136845854
2	3517	808.983008301539	0
2	3522	810.13087676599	0
2	3527	810.786331186137	0
2	3536	811.835107265961	0
2	3539	812.366287069687	0.175278666931
2	3549	813.989643658592	0
2	3554	814.520823462318	0.176204980287
2	3561	815.515360892309	0
2	3566	816.825507093011	0
2	3571	817.446266642004	0
2	3576	819.4452397946	0
2	3583	820.443523423173	0
2	3588	820.974703226899	0.044473850287
2	3596	822.299853369888	0
2	3606	825.368162104438	0
2	3615	828.789086296859	0
2	3625	830.678689518982	0
2	3630	831.209869322708	0.127179712631
2	3637	832.780090331701	0
2	3647	838.802426324006	0
2	3651	839.333606127732	0.098391315045
2	3656	840.913948293465	0
2	3663	841.546940197709	0
2	3669	843.084479462076	0
2	3674	845.088559765345	0
2	3679	845.786360325562	0
2	3686	846.914127469559	0
2	3694	849.964434278759	0
2	3697	850.495614082485	0.061387933321
2	3702	851.245826866698	0
2	3709	852.291607684336	0
2	3715	854.633604203049	0
2	3720	855.545949033316	0
2	3725	856.392550806861	0
2	3734	857.488220607622	0
2	3737	858.019400411348	0.158507707157
2	3743	859.304252814017	0
2	3750	860.764020798487	0
2	3756	862.51119253251	0
2	3763	863.780725843032	0
2	3769	864.554184775236	0
2	3774	865.897309627762	0
2	3779	867.805448874792	0
2	3784	869.385852567901	0
2	3791	870.553860432086	0
2	3796	871.085040235812	0.146544679197
2	3799	871.616220039538	0.125444514391
2	3808	872.866051263219	0
2	3814	873.397231066945	0.149660436471
2	3821	874.149629135193	0.081598126996
2	3826	876.009765398742	0
2	3831	877.002466701494	0
2	3836	882.6185623286	0
2	3841	883.571295511548	0
2	3848	884.662355341459	0
2	3854	885.9943530096	0
2	3859	886.931566223374	0
2	3864	887.740662051387	0
2	3873	890.85062561722	0
2	3880	892.031471536174	0
2	3885	893.10171910279	0
2	3892	895.582699219433	0
2	3898	897.190142873334	0
2	3903	900.533520658009	0
2	3908	901.460373224481	0
2	3915	902.079024276735	0
2	3923	903.270752070848	0
2	3931	903.879660441211	0
2	3934	904.410840244937	0.091906204758
2	3941	905.74156160672	0
2	3949	906.42088563585	0
2	3957	910.328390977934	0
2	3963	911.399739123721	0
2	3968	913.315505443773	0
2	3975	913.864870052725	0
2	3978	914.396049856451	0.042137984465
2	3983	915.067969297831	0
2	3992	916.342502839577	0
2	3996	916.873682643303	0.167527402773
2	4004	917.802852216107	0
2	4013	918.334032019833	0.084587731425
2	4024	918.865211823559	0.14042646289
2	4033	919.396391627285	0.043698509307
2	4042	920.206514835307	0
2	4048	920.775815127889	0
2	4055	922.653763296743	0
2	4061	927.25951771599	0
2	4066	927.994100566287	0
2	4071	929.304305494065	0
2	4076	930.167286107623	0
2	4083	930.894179470585	0
2	4088	931.425359274311	0.203193203113
2	4096	932.766933744706	0
2	4102	935.214517024067	0
2	4107	936.138957796914	0
2	4114	937.442581348884	0
2	4126	939.087038068266	0
2	4134	940.864191714372	0
2	4139	942.242737273546	0
2	4148	943.222635735403	0
2	4156	943.753815539129	0.00025759609
2	4162	944.284995342855	0.061197752312
2	4172	946.131158963462	0
2	4176	946.662338767188	0.001908449915
2	4181	948.070160124217	0
2	4186	948.991511935394	0
2	4191	949.845300754598	0
2	4198	951.1716870757	0
2	4204	952.57763348743	0
2	4212	953.330031555678	0.109627310732
2	4218	954.48097317834	0
2	4223	955.32577905822	0
2	4232	956.843447464332	0
2	4239	957.913890709568	0
2	4244	961.677034519416	0
2	4249	964.616667704618	0
2	4256	965.22854849623	0
2	4262	966.555197834783	0
2	4269	967.169384106388	0
2	4274	967.700563910114	0.147920177845
2	4282	968.732844375471	0
2	4285	969.264024179197	0.170601734991
2	4290	973.141462564743	0
2	4297	974.078288284129	0
2	4303	974.875658763777	0
2	4308	975.476449999686	0
2	4313	976.139413281832	0
2	4318	978.309094442171	0
2	4327	979.321241541541	0
2	4333	979.852421345267	0.146768478325
2	4339	980.496797591965	0
2	4344	981.769669341555	0
2	4351	983.578263907936	0
2	4357	984.78590357427	0
2	4362	986.229743373633	0
2	4369	988.325539979911	0
2	4375	988.892339086986	0
2	4380	989.59697321803	0
2	4385	991.784995097082	0
2	4393	992.53739316533	0.010736000459
2	4399	994.868615529303	0
2	4404	996.359043535728	0
2	4409	997.000143341338	0
2	4414	998.885137552115	0
3	5	1.048982801729	0
3	10	3.973079465641	0
3	19	6.74544059482	0
3	26	8.281840471394	0
3	33	9.926074256705	0
3	38	10.457254060431	2
3	41	10.988433864157	2
3	48	12.236634990166	0
3	54	13.126644902163	0
3	59	14.473712348758	0
3	64	15.681301085265	0
3	71	16.559894416994	0
3	74	17.09107422072	2
3	79	18.898180375424	0
3	84	21.164007865374	0
3	89	21.942321278702	0
3	96	23.099680344455	0
3	104	24.201469393364	0
3	110	27.87939136156	0
3	117	29.865104109573	0
3	123	31.548711251565	0
3	132	33.045559844046	0
3	139	34.62422039233	0
3	144	35.369999549265	0
3	149	38.016156604786	0
3	156	38.769564171254	0
3	164	41.319469316956	0
3	170	43.961573276747	0
3	177	44.685792209222	0
3	183	46.683695098611	0
3	191	47.497796692245	0
3	194	48.028976495971	2
3	201	51.1627456095	0
3	204	51.693925413226	2
3	211	52.651952791791	0
3	217	53.658100623176	0
3	222	55.825357550975	0
3	231	56.963859106421	0
3	235	57.495038910147	2
3	240	58.316273785733	0
3	247	59.152198374476	0
3	253	61.050308845432	0
3	258	62.966796198072	0
3	263	64.098302385038	0
3	268	64.898677268795	0
3	275	65.619077400303	0
3	280	66.150257204029	2
3	283	66.681437007755	2
3	290	67.674321137966	0
3	296	68.431531803496	0
3	301	69.209066290766	0
3	308	70.103433627912	0
3	311	70.634613431638	2
3	316	71.301835268296	0
3	321	72.629600621297	0
3	328	74.054002740555	0
3	331	74.585182544281	2
3	336	76.829852352196	0
3	341	79.305700631508	0
3	348	81.0090383603	0
3	355	81.761436428548	2
3	364	82.981510154134	0
3	370	83.51268995786	2
3	380	88.482334690553	0
3	386	89.013514494279	2
3	392	89.853319678211	0
3	399	92.103588018195	0
3	405	93.03451121719	0
3	410	93.73440202697	0
3	415	96.027006304658	0
3	422	100.340839916893	0
3	425	100.872019720619	2
3	430	101.677574654785	0
3	437	105.805420415325	0
3	445	106.721847867972	0
3	451	107.999038787732	0
3	458	109.647272627303	0
3	461	110.178452431029	2
3	468	111.432705942049	0
3	476	112.046297065861	0
3	482	112.695817809606	0
3	489	113.427275004884	0
3	492	113.95845480861	2
3	501	116.053078301393	0
3	505	116.584258105119	2
3	510	118.74263209953	0
3	515	119.68811816957	0
3	522	120.468898636873	0
3	531	121.000078440599	2
3	538	121.531258244325	2
3	545	124.570490113065	0
3	552	127.061320540924	0
3	560	127.97820003641	0
3	571	128.509379840136	2
3	580	129.086859645198	0
3	585	130.325599754241	0
3	590	132.220445233837	0
3	595	132.833840051429	0
3	600	134.04961926116	0
3	607	135.181718030179	0
3	615	136.898298531069	0
3	620	137.429478334795	2
3	623	137.960658138521	2
3	628	139.152881776847	0
3	635	140.475286308199	0
3	645	141.354545988073	0
3	653	141.885725791799	2
3	660	142.750497455951	0
3	665	143.398522472355	0
3	670	145.904658125554	0
3	675	146.765794481881	0
3	682	150.45904492741	0
3	688	151.9559638982	0
3	695	152.578242919417	0
3	701	155.315915072131	0
3	706	157.357124702573	0
3	711	158.706428621995	0
3	718	159.560183310491	0
3	727	160.091363114217	2
3	732	160.622542917943	2
3	738	161.374940986191	2
3	747	163.500857863749	0
3	756	164.912461950887	0
3	764	165.962040801583	0
3	772	167.091798120516	0
3	779	167.622977924242	2
3	785	168.154157727968	2
3	790	168.685337531694	2
3	796	171.762487884239	0
3	805	172.543374727199	0
3	811	173.074554530925	2
3	819	175.644965149798	0
3	825	177.141251791125	0
3	832	179.202020812121	0
3	835	179.733200615847	2
3	840	181.488392196684	0
3	849	182.173306491642	0
3	853	182.704486295368	2
3	858	183.454148561439	0
3	865	185.860521817462	0
3	871	186.800168748723	0
3	876	190.111475592893	0
3	883	193.25558621307	0
3	886	193.786766016796	2
3	891	195.899328701999	0
3	896	196.637181465366	0
3	905	202.108290515959	0
3	912	202.798981877436	0
3	917	204.201336756868	0
3	922	205.712218433056	0
3	928	206.770042933926	0
3	933	207.772479677133	0
3	938	210.374217248193	0
3	943	212.457867483454	0
3	948	213.328944587558	0
3	955	214.068763277416	0
3	958	214.599943081142	2
3	963	215.74425725897	0
3	968	217.512498569567	0
3	977	218.763593168607	0
3	981	219.294772972333	2
3	988	223.037301682508	0
3	994	225.713868301895	0
3	999	226.722102877251	0
3	1004	227.670518503449	0
3	1011	229.520066897902	0
3	1014	230.051246701628	2
3	1019	231.673586911112	0
3	1026	233.722811908958	0
3	1032	234.601708829782	0
3	1037	238.333711818102	0
3	1042	239.590886149036	0
3	1047	244.398362985578	0
3	1052	245.239499569253	0
3	1057	247.094661772281	0
3	1064	249.228304186054	0
3	1070	250.127307450531	0
3	1077	254.106932049864	0
3	1085	254.884248679349	0
3	1088	255.415428483075	2
3	1094	256.908514576669	0
3	1099	261.563902940754	0
3	1104	263.038508258378	0
3	1113	266.359688408805	0
3	1122	268.038876351113	0
3	1129	268.570056154839	2
3	1135	269.101235958565	2
3	1141	269.809383571924	0
3	1148	270.386525147202	0
3	1154	272.810265192664	0
3	1159	273.716598941081	0
3	1164	274.430533705679	0
3	1171	275.639561271784	0
3	1177	278.016271173884	0
3	1182	282.687593000257	0
3	1187	283.62153410753	0
3	1192	284.188563950264	0
3	1199	287.357189728196	0
3	1202	287.888369531922	2
3	1209	288.464086546581	0
3	1212	288.995266350307	2
3	1217	292.385593596217	0
3	1222	295.73795298053	0
3	1227	297.212900583705	0
3	1232	298.742615004516	0
3	1239	299.616748085406	0
3	1247	300.294466738958	0
3	1253	301.883393203386	0
3	1258	302.433287387339	0
3	1263	303.120036344534	0
3	1269	303.955067861563	0
3	1276	304.55480232011	0
3	1282	305.119072410183	0
3	1287	309.190598085784	0
3	1298	309.995147227976	0
3	1304	310.526327031702	2
3	1311	311.104196268892	0
3	1316	311.686290522096	0
3	1321	312.694787505153	0
3	1326	314.059322153417	0
3	1331	315.845825821267	0
3	1336	318.602563646429	0
3	1343	319.84841364883	0
3	1349	321.002102128041	0
3	1354	322.373931009004	0
3	1359	323.37492709903	0
3	1366	324.012669741108	0
3	1372	325.503205505696	0
3	1379	327.587186416023	0
3	1387	328.390819673732	0
3	1393	329.711858626668	0
3	1398	330.532219098678	0
3	1403	331.771080962458	0
3	1408	332.787844932062	0
3	1415	334.915821972337	0
3	1420	335.447001776063	2
3	1425	335.978181579789	2
3	1431	339.213062433049	0
3	1436	339.969226371197	0
3	1443	341.237561102864	0
3	1450	342.210161058898	0
3	1457	342.800029570367	0
3	1464	343.331209374093	2
3	1470	343.862389177819	2
3	1476	345.388149135184	0
3	1481	346.803849532632	0
3	1486	348.953309881728	0
3	1491	350.200975642569	0
3	1498	353.28790240962	0
3	1504	356.139166774354	0
3	1511	357.169934676621	0
3	1514	357.701114480347	2
3	1519	358.81952805843	0
3	1524	359.895175440566	0
3	1531	360.663789357	0
3	1539	363.216156257437	0
3	1544	363.747336061163	2
3	1547	364.278515864889	2
3	1552	364.856863494257	0
3	1559	365.956064259708	0
3	1567	367.118012830728	0
3	1570	367.649192634454	2
3	1575	369.330885934408	0
3	1582	369.928842041819	0
3	1588	370.896106230908	0
3	1595	371.483428385692	0
3	1598	372.014608189418	2
3	1603	374.421962535611	0
3	1612	375.097425219618	0
3	1619	376.393602254338	0
3	1625	377.146000322586	2
3	1630	377.851163652335	0
3	1635	378.448223687071	0
3	1640	379.330237591685	0
3	1649	380.904143559355	0
3	1655	381.435323363081	2
3	1663	382.09855145168	0
3	1671	382.7687066781	0
3	1676	383.299886481826	2
3	1679	383.831066285552	2
3	1684	384.825888073781	0
3	1691	386.294174468289	0
3	1697	387.911172542297	0
3	1702	388.548487084687	0
3	1707	389.176580996181	0
3	1714	390.232721800712	0
3	1722	391.098059962361	0
3	1728	392.1111734254	0
3	1735	392.694965973555	0
3	1745	393.513632202314	0
3	1748	394.04481200604	2
3	1756	394.618942079269	0
3	1762	395.517330386533	0
3	1767	396.199450775152	0
3	1772	397.265168746551	0
3	1779	399.486466310466	0
3	1789	401.779933808413	0
3	1799	402.311113612139	2
3	1807	403.250338451985	0
3	1812	404.314638867392	0
3	1818	405.06703693564	2
3	1823	405.682092685421	0
3	1828	408.388837566132	0
3	1837	409.325505459415	0
3	1844	410.823374706698	0
3	1849	413.649558848579	0
3	1854	415.62401305384	0
3	1859	416.56348099701	0
3	1864	417.834423276677	0
3	1871	418.652634942265	0
3	1876	419.183814745991	2
3	1882	421.087398058303	0
3	1887	423.684127343555	0
3	1892	425.242300023443	0
3	1899	425.858993120905	0
3	1905	428.424569481911	0
3	1910	429.717415823218	0
3	1915	434.13477661602	0
3	1924	434.8205382831	0
3	1928	435.351718086826	2
3	1933	438.605469252152	0
3	1938	442.238071501253	0
3	1943	442.823137369809	0
3	1950	443.720488143095	0
3	1956	445.070974943055	0
3	1963	447.840991537584	0
3	1969	448.682598621503	0
3	1976	449.387061353005	0
3	1982	450.287189470635	0
3	1989	451.496061011474	0
3	1998	452.735746280307	0
3	2004	454.803126042479	0
3	2011	455.865336014746	0
3	2017	456.688438117605	0
3	2022	458.425907626344	0
3	2027	460.024428736122	0
3	2032	461.750381856438	0
3	2037	462.563307511274	0
3	2044	465.056371617959	0
3	2054	470.57339881234	0
3	2063	471.701108355174	0
3	2069	473.758302423625	0
3	2076	474.500000717274	0
3	2079	475.031180521	2
3	2084	476.184236380621	0
3	2089	478.391173756002	0
3	2094	481.247812994465	0
3	2099	481.955393246857	0
3	2104	482.962007716595	0
3	2111	483.642029828486	0
3	2116	484.173209632212	2
3	2119	484.704389435938	2
3	2126	485.387785659085	0
3	2132	486.058239636296	0
3	2139	486.63294492366	0
3	2145	487.3037159687	0
3	2152	489.099542624094	0
3	2160	489.732600767132	0
3	2166	490.706363634904	0
3	2171	491.407349121782	0
3	2179	492.15974719003	2
3	2187	495.875008299597	0
3	2190	496.406188103323	2
3	2195	497.577530687443	0
3	2202	499.22542203952	0
3	2205	499.756601843246	2
3	2210	500.309642522407	0
3	2217	501.101854134563	0
3	2223	504.784143482047	0
3	2230	508.709993125356	0
3	2238	512.019791545148	0
3	2246	512.692409952644	0
3	2254	513.968782653908	0
3	2260	518.163576932486	0
3	2265	519.114262931905	0
3	2270	519.86742185297	0
3	2277	521.098940847097	0
3	2280	521.630120650823	2
3	2285	523.01305268789	0
3	2290	523.551228211896	0
3	2295	524.090548791286	0
3	2302	525.476361109872	0
3	2305	526.007540913598	2
3	2310	527.921886623795	0
3	2317	529.845768255535	0
3	2322	530.376948059261	2
3	2328	534.233090764677	0
3	2337	537.108624254938	0
3	2343	537.639804058664	2
3	2346	538.17098386239	2
3	2356	538.98779683893	0
3	2362	539.518976642656	2
3	2368	540.425138777095	0
3	2373	542.234263858965	0
3	2378	544.154916172524	0
3	2383	547.761643901565	0
3	2388	549.970756854203	0
3	2395	551.105417704545	0
[...]
7	3193	737.646270704496	0
7	3204	739.264471664638	0
7	3208	739.795651468364	0
7	3217	741.457862235206	0
7	3226	742.383873477968	0
7	3236	743.110179052815	0
7	3243	746.62828750424	0
7	3248	747.58842729899	0
7	3257	750.214294584381	0
7	3263	750.745474388107	0
7	3268	751.276654191833	0
7	3279	752.934479642915	0
7	3282	753.465659446641	0
7	3292	757.434171486816	0
7	3296	757.965351290542	0
7	3301	760.298065149921	0
7	3306	760.952857156405	0
7	3313	764.386779353661	0
7	3316	764.917959157387	0
7	3321	765.499682528233	0
7	3326	766.224917157296	0
7	3335	767.642749306788	0
7	3341	768.173929110514	0
7	3344	768.70510891424	0
7	3351	770.096485371147	0
7	3357	772.095271304432	0
7	3364	773.374087628647	0
7	3367	773.905267432373	0
7	3374	774.718001802063	0
7	3380	776.164862443926	0
7	3385	777.239148237312	0
7	3392	778.219828312888	0
7	3395	778.751008116614	0
7	3402	782.109514901142	0
7	3405	782.640694704868	0
7	3410	784.461600294784	0
7	3417	785.616926082991	0
7	3420	786.148105886717	0
7	3425	788.33283074146	0
7	3432	788.902701193258	0
7	3440	789.73848489014	0
7	3453	793.833690116132	0
7	3457	794.364869919858	0
7	3465	797.090409979156	0
7	3473	798.358262393874	0
7	3478	798.8894421976	0
7	3481	799.420622001326	0
7	3486	800.190628329101	0
7	3491	800.754250393331	0
7	3498	804.307553844265	0
7	3507	804.838733647991	0
7	3512	805.369913451717	0
7	3517	808.983008301539	0
7	3522	810.13087676599	0
7	3527	810.786331186137	0
7	3536	811.835107265961	0
7	3539	812.366287069687	0
7	3549	813.989643658592	0
7	3554	814.520823462318	0
7	3561	815.515360892309	0
7	3566	816.825507093011	0
7	3571	817.446266642004	0
7	3576	819.4452397946	0
7	3583	820.443523423173	0
7	3588	820.974703226899	0
7	3596	822.299853369888	0
7	3606	825.368162104438	0
7	3615	828.789086296859	0
7	3625	830.678689518982	0
7	3630	831.209869322708	0
7	3637	832.780090331701	0
7	3647	838.802426324006	0
7	3651	839.333606127732	0
7	3656	840.913948293465	0
7	3663	841.546940197709	0
7	3669	843.084479462076	0
7	3674	845.088559765345	0
7	3679	845.786360325562	0
7	3686	846.914127469559	0
7	3694	849.964434278759	0
7	3697	850.495614082485	0
7	3702	851.245826866698	0
7	3709	852.291607684336	0
7	3715	854.633604203049	0
7	3720	855.545949033316	0
7	3725	856.392550806861	0
7	3734	857.488220607622	0
7	3737	858.019400411348	0
7	3743	859.304252814017	0
7	3750	860.764020798487	0
7	3756	862.51119253251	0
7	3763	863.780725843032	0
7	3769	864.554184775236	0
7	3774	865.897309627762	0
7	3779	867.805448874792	0
7	3784	869.385852567901	0
7	3791	870.553860432086	0
7	3796	871.085040235812	0
7	3799	871.616220039538	0
7	3808	872.866051263219	0
7	3814	873.397231066945	0
7	3821	874.149629135193	0
7	3826	876.009765398742	0
7	3831	877.002466701494	0
7	3836	882.6185623286	0
7	3841	883.571295511548	0
7	3848	884.662355341459	0
7	3854	885.9943530096	0
7	3859	886.931566223374	0
7	3864	887.740662051387	0
7	3873	890.85062561722	0
7	3880	892.031471536174	0
7	3885	893.10171910279	0
7	3892	895.582699219433	0
7	3898	897.190142873334	0
7	3903	900.533520658009	0
7	3908	901.460373224481	0
7	3915	902.079024276735	0
7	3923	903.270752070848	0
7	3931	903.879660441211	0
7	3934	904.410840244937	0
7	3941	905.74156160672	0
7	3949	906.42088563585	0
7	3957	910.328390977934	0
7	3963	911.399739123721	0
7	3968	913.315505443773	0
7	3975	913.864870052725	0
7	3978	914.396049856451	0
7	3983	915.067969297831	0
7	3992	916.342502839577	0
7	3996	916.873682643303	0
7	4004	917.802852216107	0
7	4013	918.334032019833	0
7	4024	918.865211823559	0
7	4033	919.396391627285	0
7	4042	920.206514835307	0
7	4048	920.775815127889	0
7	4055	922.653763296743	0
7	4061	927.25951771599	0
7	4066	927.994100566287	0
7	4071	929.304305494065	0
7	4076	930.167286107623	0
7	4083	930.894179470585	0
7	4088	931.425359274311	0
7	4096	932.766933744706	0
7	4102	935.214517024067	0
7	4107	936.138957796914	0
7	4114	937.442581348884	0
7	4126	939.087038068266	0
7	4134	940.864191714372	0
7	4139	942.242737273546	0
7	4148	943.222635735403	0
7	4156	943.753815539129	0
7	4162	944.284995342855	0
7	4172	946.131158963462	0
7	4176	946.662338767188	0
7	4181	948.070160124217	0
7	4186	948.991511935394	0
7	4191	949.845300754598	0
7	4198	951.1716870757	0
7	4204	952.57763348743	0
7	4212	953.330031555678	0
7	4218	954.48097317834	0
7	4223	955.32577905822	0
7	4232	956.843447464332	0
7	4239	957.913890709568	0
7	4244	961.677034519416	0
7	4249	964.616667704618	0
7	4256	965.22854849623	0
7	4262	966.555197834783	0
7	4269	967.169384106388	0
7	4274	967.700563910114	0
7	4282	968.732844375471	0
7	4285	969.264024179197	0
7	4290	973.141462564743	0
7	4297	974.078288284129	0
7	4303	974.875658763777	0
7	4308	975.476449999686	0
7	4313	976.139413281832	0
7	4318	978.309094442171	0
7	4327	979.321241541541	0
7	4333	979.852421345267	0
7	4339	980.496797591965	0
7	4344	981.769669341555	0
7	4351	983.578263907936	0
7	4357	984.78590357427	0
7	4362	986.229743373633	0
7	4369	988.325539979911	0
7	4375	988.892339086986	0
7	4380	989.59697321803	0
7	4385	991.784995097082	0
7	4393	992.53739316533	0
7	4399	994.868615529303	0
7	4404	996.359043535728	0
7	4409	997.000143341338	0
7	4414	998.885137552115	0
8	18	6.74544059482	0.452848912119
8	20	6.74544059482	0.235329670607
8	32	9.926074256705	0.140369227898
8	37	10.457254060431	0.186065701381
8	47	12.236634990166	0.477209261587
8	70	16.559894416994	0.109379148524
8	95	23.099680344455	0.410675738255
8	103	24.201469393364	0.518473858714
8	116	29.865104109573	0.262070991377
8	131	33.045559844046	0.428643957164
8	133	33.045559844046	0.222016076978
8	155	38.769564171254	0.52910318622
8	163	41.319469316956	0.352825622268
8	176	44.685792209222	0.426878060905
8	190	47.497796692245	0.056210778295
8	200	51.1627456095	0.009191409546
8	210	52.651952791791	0.237462862468
8	230	56.963859106421	0.418505070737
8	232	56.963859106421	0.145753256981
8	246	59.152198374476	0.448544135093
8	274	65.619077400303	0.076293250582
8	279	66.150257204029	0.031111937174
8	289	67.674321137966	0.2704838182
8	307	70.103433627912	0.011726794903
8	327	74.054002740555	0.055532063871
8	351	81.230256624822	0.683997728021
8	352	81.230256624822	0.032941066403
8	363	82.981510154134	0.494543732474
8	365	82.981510154134	0.081589749937
8	369	83.51268995786	0.24294441684
8	379	88.482334690553	0.379197273583
8	381	88.482334690553	0.163491264124
8	385	89.013514494279	0.343644884791
8	398	92.103588018195	0.255579299229
8	421	100.340839916893	0.102548325149
8	436	105.805420415325	0.389786245257
8	444	106.721847867972	0.406756518714
8	457	109.647272627303	0.083723526575
8	467	111.432705942049	0.428232074272
8	475	112.046297065861	0.360529718104
8	488	113.427275004884	0.091888478525
8	500	116.053078301393	0.282168718448
8	502	116.053078301393	0.076491867392
8	521	120.468898636873	0.187251186144
8	530	121.000078440599	0.419131054929
8	532	121.000078440599	0.265718707664
8	533	121.000078440599	0.191989737794
8	539	121.752476508847	0.271538800867
8	551	127.061320540924	0.498568681748
8	559	127.97820003641	0.100229877019
8	570	128.509379840136	0.484775045534
8	572	128.509379840136	0.415028789313
8	573	128.509379840136	0.402514403089
8	574	128.509379840136	0.278609569392
8	606	135.181718030179	0.275852266935
8	614	136.898298531069	0.139801821708
8	619	137.429478334795	0.18376405695
8	634	140.475286308199	0.51173381679
8	644	141.354545988073	0.365649692238
8	646	141.354545988073	0.115151262418
8	652	141.885725791799	0.4351623681
8	654	141.885725791799	0.26517884505
8	681	150.45904492741	0.403366900604
8	694	152.578242919417	0.33025923321
8	717	159.560183310491	0.013264210102
8	726	160.091363114217	0.50415409677
8	728	160.091363114217	0.286999929857
8	729	160.091363114217	0.07420085774
8	735	160.843761182465	0.189799390235
8	746	163.500857863749	0.489968114689
8	748	163.500857863749	0.274083408407
8	755	164.912461950887	0.411306201342
8	763	165.962040801583	0.38478519313
8	771	167.091798120516	0.120155349441
8	778	167.622977924242	0.321749988968
8	780	167.622977924242	0.099909910617
8	784	168.154157727968	0.01557159387
8	789	168.685337531694	0.285122079903
8	804	172.543374727199	0.355342929052
8	806	172.543374727199	0.172416028425
8	810	173.074554530925	0.526626966144
8	818	175.644965149798	0.368919792318
8	831	179.202020812121	0.194200509917
8	848	182.173306491642	0.469662707437
8	850	182.173306491642	0.115632287748
8	864	185.860521817462	0.433646589124
8	882	193.25558621307	0.00814228573
8	904	202.108290515959	0.301995572602
8	906	202.108290515959	0.260904119095
8	954	214.068763277416	0.205621506035
8	976	218.763593168607	0.271659633812
8	978	218.763593168607	0.056410126882
8	987	223.037301682508	0.489275028765
8	1010	229.520066897902	0.104029251694
8	1025	233.722811908958	0.248891398504
8	1063	249.228304186054	0.28903936637
8	1076	254.106932049864	0.528468454843
8	1084	254.884248679349	0.03826882509
8	1112	266.359688408805	0.340901971663
8	1114	266.359688408805	0.300165438305
8	1121	268.038876351113	0.126133397984
8	1128	268.570056154839	0.478099502533
8	1130	268.570056154839	0.032522258279
8	1134	269.101235958565	0.271555012919
8	1147	270.386525147202	0.352798782459
8	1170	275.639561271784	0.223686410249
8	1198	287.357189728196	0.067052160349
8	1208	288.464086546581	0.056059774706
8	1238	299.616748085406	0.291368018628
8	1246	300.294466738958	0.410051021742
8	1275	304.55480232011	0.468870960395
8	1297	309.995147227976	0.32702771508
8	1299	309.995147227976	0.209184699985
8	1303	310.526327031702	0.650597212323
8	1305	310.526327031702	0.269731615786
8	1342	319.84841364883	0.227330264262
8	1365	324.012669741108	0.315857644976
8	1378	327.587186416023	0.471743140559
8	1386	328.390819673732	0.394862674006
8	1414	334.915821972337	0.20676102896
8	1419	335.447001776063	0.113158829319
8	1424	335.978181579789	0.465850969547
8	1444	341.458779367386	0.227421591022
8	1456	342.800029570367	0.107601146331
8	1463	343.331209374093	0.519704911922
8	1465	343.331209374093	0.201402208965
8	1469	343.862389177819	0.341894198578
8	1497	353.28790240962	0.474266326732
8	1510	357.169934676621	0.121620590311
8	1530	360.663789357	0.453056717651
8	1538	363.216156257437	0.191593277919
8	1543	363.747336061163	0.042036864063
8	1558	365.956064259708	0.281871513101
8	1566	367.118012830728	0.02120634107
8	1581	369.928842041819	0.344068555989
8	1594	371.483428385692	0.099254335402
8	1611	375.097425219618	0.359539246358
8	1613	375.097425219618	0.218728716905
8	1622	376.61482051886	0.173857801806
8	1648	380.904143559355	0.2281246088
8	1650	380.904143559355	0.145124526797
8	1654	381.435323363081	0.32362583599
8	1662	382.09855145168	0.340706999204
8	1670	382.7687066781	0.041896118604
8	1675	383.299886481826	0.204305980757
8	1690	386.294174468289	0.380614967624
8	1713	390.232721800712	0.262322693205
8	1721	391.098059962361	0.256619676415
8	1734	392.694965973555	0.47188925329
8	1744	393.513632202314	0.184858397614
8	1747	394.04481200604	0.641681128729
8	1755	394.618942079269	0.470654985911
8	1778	399.486466310466	0.299767532156
8	1788	401.779933808413	0.523569049389
8	1790	401.779933808413	0.040481732337
8	1798	402.311113612139	0.442746470993
8	1800	402.311113612139	0.33707994075
8	1801	402.311113612139	0.318297815119
8	1815	404.535857131914	0.062869381361
8	1836	409.325505459415	0.4635479823
8	1838	409.325505459415	0.425323411294
8	1870	418.652634942265	0.120427506256
8	1875	419.183814745991	0.442864125885
8	1898	425.858993120905	0.346998176566
8	1923	434.8205382831	0.455971956736
8	1925	434.8205382831	0.05540929619
8	1949	443.720488143095	0.52382586
8	1962	447.840991537584	0.252897824413
8	1975	449.387061353005	0.387427423803
8	1990	451.717279275996	0.393008982941
8	1997	452.735746280307	0.411055670443
8	2010	455.865336014746	0.42346377961
8	2043	465.056371617959	0.386860903241
8	2053	470.57339881234	0.413606315026
8	2055	470.57339881234	0.212747672416
8	2062	471.701108355174	0.298407428023
8	2075	474.500000717274	0.120845417911
8	2110	483.642029828486	0.162099402283
8	2115	484.173209632212	0.091950497324
8	2125	485.387785659085	0.274152160301
8	2138	486.63294492366	0.38636845754
8	2151	489.099542624094	0.212331206611
8	2159	489.732600767132	0.253996193549
8	2174	491.628567386304	0.004257542173
8	2178	492.15974719003	0.283514119621
8	2186	495.875008299597	0.030548352594
8	2201	499.22542203952	0.087571046042
8	2216	501.101854134563	0.320406128373
8	2229	508.709993125356	0.220907036468
8	2237	512.019791545148	0.263564966952
8	2245	512.692409952644	0.228650087015
8	2253	513.968782653908	0.45002933301
8	2276	521.098940847097	0.138474027991
8	2301	525.476361109872	0.191098418319
8	2316	529.845768255535	0.081274001993
8	2321	530.376948059261	0.22896131932
8	2336	537.108624254938	0.463406904964
8	2338	537.108624254938	0.015961372712
8	2342	537.639804058664	0.203627511757
8	2355	538.98779683893	0.369492314427
8	2357	538.98779683893	0.095423972047
8	2361	539.518976642656	0.421802908681
8	2394	551.105417704545	0.10353429284
8	2424	560.842845481789	0.182040907522
8	2429	561.374025285515	0.217431919429
8	2437	563.715592827941	0.2317983942
8	2445	565.075953406112	0.52219047213
8	2458	567.261759799075	0.010809674457
8	2485	572.137761515758	0.351116748925
8	2487	572.137761515758	0.123268953363
8	2498	573.775339947029	0.355402385298
8	2500	573.775339947029	0.142489925467
8	2506	574.306519750755	0.526920509358
8	2508	574.306519750755	0.149049985143
8	2528	580.247100604766	0.237207098405
8	2546	582.645699583274	0.369637018489
8	2554	584.64432837296	0.277345099597
8	2584	594.384918133036	0.442159598964
8	2586	594.384918133036	0.24159929486
8	2603	597.649604262787	0.226261634349
8	2611	599.25274965765	0.336784193102
8	2619	599.849172686167	0.310463471322
8	2634	604.780018660659	0.457441236086
8	2636	604.780018660659	0.112698454565
8	2645	606.174213028965	0.364676213784
8	2653	606.968720548228	0.122645002259
8	2660	607.499900351954	0.078950207878
8	2663	608.03108015568	0.549530927272
8	2676	609.881846122734	0.461989579083
8	2684	610.557626740062	0.172277187904
8	2689	611.088806543788	0.061426204809
8	2699	612.200773321412	0.460074991372
8	2718	616.941888450261	0.46742897052
8	2726	618.253284663528	0.295952120084
8	2739	621.396825369767	0.126697606736
8	2774	633.787168446758	0.336373324149
8	2787	637.755642746893	0.024772984448
8	2792	638.286822550619	0.056840305713
8	2807	641.225641523744	0.261077402521
8	2825	645.964345949748	0.47210530451
8	2833	647.717006062	0.221943917039
8	2848	648.959388369125	0.423846084939
8	2850	648.959388369125	0.252995285086
8	2862	652.842832531965	0.209369105533
8	2867	653.374012335691	0.140438556305
8	2872	653.905192139417	0.391766552608
8	2892	659.415229046944	0.035759653169
8	2926	670.355196900143	0.312658769624
8	2939	671.716248702527	0.009912298866
8	2944	672.247428506253	0.362061390774
8	2976	678.039008319036	0.509754379119
8	2978	678.039008319036	0.477307930421
8	2979	678.039008319036	0.286529103181
8	2991	681.58635622771	0.295700909559
8	2999	684.907769568725	0.338564182427
8	3007	687.855473584584	0.484032046216
8	3020	690.928028289789	0.295195688075
8	3063	705.266480660467	0.288053133717
8	3079	708.898964844855	0.358962569853
8	3081	708.898964844855	0.350553983663
8	3150	726.772174567805	0.453094784971
8	3152	726.772174567805	0.275397541747
8	3159	727.831250725265	0.447310206884
8	3167	729.910676707276	0.134762836809
8	3182	736.708909921174	0.474817610062
8	3192	737.646270704496	0.49417051964
8	3194	737.646270704496	0.308301107885
8	3203	739.264471664638	0.227620062026
8	3205	739.264471664638	0.053588279626
8	3216	741.457862235206	0.516107870201
8	3218	741.457862235206	0.220329782658
8	3225	742.383873477968	0.32947282369
8	3235	743.110179052815	0.462456962461
8	3237	743.110179052815	0.447940457497
8	3256	750.214294584381	0.39689490339
8	3258	750.214294584381	0.130925802436
8	3262	750.745474388107	0.143404079963
8	3269	751.497872456355	0.311576713053
8	3278	752.934479642915	0.1317639932
8	3281	753.465659446641	0.554111523382
8	3291	757.434171486816	0.251150965515
8	3293	757.434171486816	0.025920351494
8	3312	764.386779353661	0.036069441327
8	3334	767.642749306788	0.382190123408
8	3336	767.642749306788	0.144495493631
8	3340	768.173929110514	0.112711885531
8	3350	770.096485371147	0.39312557366
8	3363	773.374087628647	0.060012873749
8	3373	774.718001802063	0.412390736984
8	3391	778.219828312888	0.111992776981
8	3401	782.109514901142	0.151924282235
8	3416	785.616926082991	0.078568157852
8	3431	788.902701193258	0.450510153718
8	3441	789.959703154662	0.735616315348
8	3452	793.833690116132	0.386528040347
8	3454	793.833690116132	0.196205792215
8	3456	794.364869919858	0.687841221078
8	3464	797.090409979156	0.519901086156
8	3472	798.358262393874	0.119190124765
8	3477	798.8894421976	0.18468917202
8	3497	804.307553844265	0.131017399034
8	3506	804.838733647991	0.459471334678
8	3508	804.838733647991	0.295778782369
8	3509	804.838733647991	0.126136845854
8	3535	811.835107265961	0.175278666931
8	3538	812.366287069687	0.552332373175
8	3548	813.989643658592	0.176204980287
8	3553	814.520823462318	0.636338617814
8	3555	814.520823462318	0.327301587583
8	3582	820.443523423173	0.044473850287
8	3587	820.974703226899	0.516601636428
8	3595	822.299853369888	0.497390355536
8	3605	825.368162104438	0.521316874971
8	3607	825.368162104438	0.290849384243
8	3614	828.789086296859	0.343069993964
8	3624	830.678689518982	0.127179712631
8	3629	831.209869322708	0.548802229932
8	3631	831.209869322708	0.497722205228
8	3646	838.802426324006	0.357956395305
8	3648	838.802426324006	0.098391315045
8	3662	841.546940197709	0.322147931225
8	3685	846.914127469559	0.477567110582
8	3693	849.964434278759	0.061387933321
8	3708	852.291607684336	0.266664545767
8	3733	857.488220607622	0.158507707157
8	3736	858.019400411348	0.666193179046
8	3749	860.764020798487	0.368624593735
8	3762	863.780725843032	0.276779308961
8	3790	870.553860432086	0.146544679197
8	3795	871.085040235812	0.125444514391
8	3807	872.866051263219	0.390567487732
8	3809	872.866051263219	0.149660436471
8	3817	873.618449331467	0.733868098307
8	3818	873.618449331467	0.081598126996
8	3847	884.662355341459	0.375520736728
8	3872	890.85062561722	0.333818048878
8	3874	890.85062561722	0.217705861905
8	3891	895.582699219433	0.468893944283
8	3914	902.079024276735	0.465949620128
8	3922	903.270752070848	0.460332940301
8	3930	903.879660441211	0.091906204758
8	3940	905.74156160672	0.223545730363
8	3948	906.42088563585	0.295247058221
8	3956	910.328390977934	0.246092084941
8	3974	913.864870052725	0.042137984465
8	3991	916.342502839577	0.349105001136
8	3993	916.342502839577	0.167527402773
8	4003	917.802852216107	0.084587731425
8	4012	918.334032019833	0.497062512223
8	4014	918.334032019833	0.399376559161
8	4015	918.334032019833	0.14042646289
8	4023	918.865211823559	0.39796984185
8	4025	918.865211823559	0.317523496937
8	4026	918.865211823559	0.043698509307
8	4032	919.396391627285	0.517200436668
8	4034	919.396391627285	0.477441481702
8	4041	920.206514835307	0.222786325449
8	4054	922.653763296743	0.26569391302
8	4082	930.894179470585	0.203193203113
8	4087	931.425359274311	0.477872468285
8	4095	932.766933744706	0.521221541794
8	4113	937.442581348884	0.289117296969
8	4125	939.087038068266	0.426564762184
8	4127	939.087038068266	0.295005538969
8	4128	939.087038068266	0.278311153327
8	4147	943.222635735403	0.446321160609
8	4149	943.222635735403	0.00025759609
8	4155	943.753815539129	0.374823731669
8	4157	943.753815539129	0.061197752312
8	4161	944.284995342855	0.411892687128
8	4171	946.131158963462	0.439782053788
8	4173	946.131158963462	0.001908449915
8	4197	951.1716870757	0.393354743197
8	4207	952.798851751952	0.109627310732
8	4211	953.330031555678	0.443161963297
8	4231	956.843447464332	0.47177078176
8	4233	956.843447464332	0.256612079657
8	4255	965.22854849623	0.391116349356
8	4268	967.169384106388	0.147920177845
8	4273	967.700563910114	0.416784111435
8	4281	968.732844375471	0.170601734991
8	4296	974.078288284129	0.304990730878
8	4326	979.321241541541	0.33888918678
8	4328	979.321241541541	0.146768478325
8	4332	979.852421345267	0.36734739939
8	4350	983.578263907936	0.325057996317
8	4368	988.325539979911	0.235277292577
8	4388	992.006213361604	0.010736000459
8	4392	992.53739316533	0.270974455696

