version 2
run General-296-20240201-11:04:26-40057
attr configname General
attr datetime 20240201-11:04:26
attr experiment General
attr inifile main.ini
attr iterationvars "$0=1.2, $1=1.7, $2=70"
attr iterationvarsf 1.2,1.7,70-
attr measurement "$0=1.2, $1=1.7, $2=70"
attr network Rete
attr processid 40057
attr repetition 16
attr replication #16
attr resultdir results
attr runnumber 296
attr seedset 296
param Rete.lambda 1.2
param Rete.a 0.3s
param Rete.b 1.7s
param Rete.c 0.1s
param Rete.d 0.3s
param Rete.mu 3.0
param Rete.source2.interArrivalTime exponential(1s/lambda)
param Rete.source2.jobServiceTime exponential(1s/mu)
param Rete.source2.deadline uniform(a,b)
param Rete.server2.j 70
param Rete.server2.V uniform(c,d)

vector 0 Rete.passiveQueue queueLength:vector ETV
attr interpolationmode sample-hold
attr title "queue length, vector"
vector 1 Rete.sink lifeTime:vector ETV
attr interpolationmode none
attr title "lifetime of arrived jobs, vector"
attr unit s
vector 2 Rete.sink totalQueueingTime:vector ETV
attr interpolationmode none
attr title "the total time spent in queues by arrived jobs, vector"
attr unit s
vector 3 Rete.sink queuesVisited:vector ETV
attr interpolationmode none
attr title "the total number of queues visited by arrived jobs, vector"
vector 4 Rete.sink totalServiceTime:vector ETV
attr interpolationmode none
attr title "the total time spent  by arrived jobs, vector"
attr unit s
vector 5 Rete.sink totalDelayTime:vector ETV
attr interpolationmode none
attr title "the total time spent in delay nodes by arrived jobs, vector"
attr unit s
vector 6 Rete.sink delaysVisited:vector ETV
attr interpolationmode none
attr title "the total number of delays visited by arrived jobs, vector"
vector 7 Rete.sink generation:vector ETV
attr interpolationmode none
attr title "the generation of the arrived jobs, vector"
vector 8 Rete.passiveQueue queueingTime:vector ETV
attr interpolationmode none
attr title "queueing time at dequeue, vector"
attr unit s
0	0	0	0
0	10	2.595940840978	1
0	12	2.70640089478	2
0	13	2.794282048696	1
0	17	3.114429523472	2
0	18	3.22289417916	1
0	21	3.651506309624	0
0	25	3.761303028698	1
0	26	4.080118440088	0
0	35	4.624289263298	1
0	37	4.683280796062	2
0	38	5.050447439747	1
0	42	5.353647156014	2
0	43	5.479059570211	1
0	46	5.907671700675	0
0	50	6.185848147582	1
0	51	6.336283831139	0
0	70	9.019433874155	1
0	71	9.208668093546	0
0	75	9.578624997792	1
0	76	9.63728022401	0
0	80	10.053234624931	1
0	81	10.065892354474	0
0	105	14.5931214118	1
0	107	14.623009062627	2
0	108	15.004709783625	1
0	111	15.433321914089	0
0	115	15.435610712519	1
0	117	15.703986827436	2
0	118	15.861934044553	1
0	122	16.046812321517	2
0	123	16.290546175017	1
0	126	16.719158305481	0
0	130	17.01318025934	1
0	131	17.147770435945	0
0	140	19.267356538336	1
0	141	19.639105669533	0
0	180	28.081769738479	1
0	181	28.37229315048	0
0	190	29.258019207874	1
0	192	29.385271823669	2
0	193	29.595909602141	1
0	196	30.024521732605	0
0	235	39.579246695895	1
0	236	39.671718257954	0
0	245	41.334067816111	1
0	247	41.460216368268	2
0	249	41.464013132779	3
0	250	41.690456139842	2
0	254	41.872518305164	3
0	255	42.119068270306	2
0	258	42.54768040077	1
0	260	42.54768040077	0
0	263	42.757218845365	1
0	264	42.976292531234	0
0	268	43.272866274074	1
0	269	43.404904661698	0
0	273	43.79570701891	1
0	274	43.833516792162	0
0	313	54.999710273978	1
0	314	55.023662517883	0
0	318	55.434569858433	1
0	319	55.452274648347	0
0	328	56.848174669961	1
0	329	57.017359216744	0
0	348	59.048522016171	1
0	349	59.288053882544	0
0	355	59.726080549146	1
0	356	59.831115463056	0
0	359	60.008317534515	1
0	360	60.25972759352	0
0	389	67.977744190639	1
0	390	68.096955064321	0
0	399	70.016445690299	1
0	400	70.271321477731	0
0	414	76.139556195135	1
0	415	76.468005027638	0
0	419	76.87428549436	1
0	420	76.896617158102	0
0	439	80.219945929126	1
0	440	80.39446460455	0
0	449	82.129547546024	1
0	450	82.510464514007	0
0	454	82.930281513726	1
0	455	82.939076644471	0
0	469	86.19201550415	1
0	470	86.554574275748	0
0	474	86.612148512714	1
0	476	86.637507640076	2
0	477	86.983186406212	1
0	480	87.411798536676	0
0	484	87.459845263293	1
0	486	87.524608521701	2
0	487	87.84041066714	1
0	490	88.269022797604	0
0	534	97.131754150294	1
0	535	97.431231353207	0
0	544	98.495235409668	1
0	545	98.522610600605	0
0	554	99.81863188027	1
0	555	99.979429832059	0
0	564	100.519946736336	1
0	565	100.885978575876	0
0	574	101.770399411547	1
0	575	102.105919930675	0
0	579	102.320227126618	1
0	580	102.534532061139	0
0	589	104.185331858615	1
0	591	104.229238279352	2
0	592	104.427528018011	1
0	595	104.856140148475	0
0	599	104.904793010492	1
0	601	105.183830185926	2
0	602	105.284752278939	1
0	606	105.485262886797	2
0	607	105.713364409403	1
0	611	106.043678842257	2
0	612	106.141976539867	1
0	615	106.570588670331	0
0	639	109.84338634536	1
0	640	110.193416459409	0
0	664	116.019272463118	1
0	666	116.304830691134	2
0	667	116.354800587426	1
0	671	116.475297027669	2
0	672	116.78341271789	1
0	676	117.126516360767	2
0	677	117.212024848354	1
0	680	117.640636978818	0
0	684	117.821343152223	1
0	686	117.938382030137	2
0	687	118.069249109282	1
0	691	118.147932534819	2
0	692	118.497861239746	1
0	696	118.740144280556	2
0	698	118.755561708334	3
0	699	118.92647337021	2
0	702	119.355085500674	1
0	707	119.898147081186	0
0	728	122.897208957895	1
0	729	123.234300044787	0
0	753	128.484231741204	1
0	755	128.568388637464	2
0	756	128.801053768643	1
0	760	129.114947629019	2
0	761	129.229665899107	1
0	764	129.658278029571	0
0	768	130.07031637585	1
0	769	130.086890160035	0
0	783	131.354569169814	1
0	785	131.553511378721	2
0	786	131.618140609932	1
0	790	131.914646663503	2
0	792	131.927673301871	3
0	793	132.046752740396	2
0	796	132.47536487086	1
0	799	132.903977001324	0
0	803	133.010122823299	1
0	805	133.290380597485	2
0	806	133.332589131788	1
0	809	133.761201262252	0
0	818	136.814830458153	1
0	819	137.094016597254	0
0	838	140.219115577011	1
0	839	140.570751386176	0
0	863	150.362325511616	1
0	864	150.711095553371	0
0	868	150.864171608968	1
0	870	151.007131028505	2
0	871	151.139707683835	1
0	874	151.568319814299	0
0	878	151.712548040588	1
0	879	151.996931944763	0
0	883	152.289409504871	1
0	884	152.425544075227	0
0	908	156.269479337776	1
0	909	156.362686203615	0
0	913	156.50549302374	1
0	914	156.791298334079	0
0	953	166.498015512426	1
0	955	166.702399616974	2
0	956	166.859414330574	1
0	960	167.124351443378	2
0	961	167.288026461038	1
0	964	167.716638591502	0
0	968	168.12596715689	1
0	969	168.145250721966	0
0	973	168.203339588014	1
0	975	168.235679941982	2
0	977	168.302304203599	3
0	979	168.31141099969	4
0	980	168.57386285243	3
0	983	169.002474982894	2
0	987	169.223423670348	3
0	988	169.431087113358	2
0	990	169.431087113358	1
0	991	169.431087113358	0
0	1009	173.657376709328	1
0	1010	174.054391690662	0
0	1029	177.206775173837	1
0	1030	177.332238841995	0
0	1034	177.445777052356	1
0	1035	177.760850972459	0
0	1044	179.467514150788	1
0	1045	179.526432245713	0
0	1059	183.610432243504	1
0	1060	183.617787583409	0
0	1064	183.90649834155	1
0	1066	184.000844747836	2
0	1070	184.156386941737	3
0	1071	184.160849163921	2
0	1073	184.589461294385	1
0	1077	184.940872621233	2
0	1078	185.018073424849	1
0	1082	185.265429752941	2
0	1083	185.446685555313	1
0	1087	185.473063009327	2
0	1089	185.648631617967	3
0	1090	185.875297685777	2
0	1094	186.040462184741	3
0	1095	186.303909816241	2
0	1098	186.732521946705	1
0	1100	186.732521946705	0
0	1103	187.085691824541	1
0	1104	187.161134077169	0
0	1143	196.809528908784	1
0	1144	196.857776707098	0
0	1153	198.47189477029	1
0	1154	198.511996209725	0
0	1158	198.837444354531	1
0	1159	198.940608340189	0
0	1168	200.325116997873	1
0	1169	200.46402215364	0
0	1213	212.306077198854	1
0	1214	212.309880540294	0
0	1218	212.665182268271	1
0	1219	212.738492670758	0
0	1223	212.811052624395	1
0	1225	213.054412768923	2
0	1226	213.167104801222	1
0	1229	213.595716931686	0
0	1233	213.60726260739	1
0	1235	213.755306917543	2
0	1236	214.02432906215	1
0	1239	214.452941192614	0
0	1243	214.841105151083	1
0	1244	214.881553323078	0
0	1253	217.042984791379	1
0	1254	217.176720219208	0
0	1278	223.103164628427	1
0	1279	223.248143981115	0
0	1283	223.414498803394	1
0	1284	223.676756111579	0
0	1288	224.001685829178	1
0	1289	224.105368242043	0
0	1298	225.080046796227	1
0	1299	225.242252721755	0
0	1328	230.157380054547	1
0	1329	230.315926526875	0
0	1333	230.54060928205	1
0	1334	230.744538657339	0
0	1388	246.160222807737	1
0	1390	246.299600531988	2
0	1391	246.44888620322	1
0	1394	246.877498333684	0
0	1403	249.525685344344	1
0	1404	249.735315357841	0
0	1408	250.160525435323	1
0	1409	250.163927488305	0
0	1424	253.741097492203	1
0	1426	253.828818624307	2
0	1427	254.125252403112	1
0	1430	254.553864533576	0
0	1434	254.958200932631	1
0	1435	254.98247666404	0
0	1449	256.916925539343	1
0	1450	257.181010183017	0
0	1459	258.175761768843	1
0	1460	258.230408607347	0
0	1464	258.254842811465	1
0	1465	258.659020737811	0
0	1479	260.582060888038	1
0	1481	260.871596900344	2
0	1482	260.936681317332	1
0	1485	261.365293447796	0
0	1489	261.673123528107	1
0	1490	261.79390557826	0
0	1494	261.969612775332	1
0	1495	262.222517708724	0
0	1499	262.41946771993	1
0	1501	262.442475192568	2
0	1502	262.651129839188	1
0	1505	263.079741969652	0
0	1514	264.177125924875	1
0	1515	264.542613652809	0
0	1524	266.273659929885	1
0	1525	266.425435523832	0
0	1534	267.621117772487	1
0	1535	268.032567298898	0
0	1549	272.639382086477	1
0	1550	272.982750202469	0
0	1569	275.958501532294	1
0	1570	276.364184382577	0
0	1589	279.058897345319	1
0	1590	279.451562810958	0
0	1594	279.529981256792	1
0	1596	279.827614091759	2
0	1597	279.880174941422	1
0	1600	280.308787071886	0
0	1604	280.641594986893	1
0	1605	280.73739920235	0
0	1609	280.896187327532	1
0	1610	281.166011332814	0
0	1614	281.207639122021	1
0	1616	281.229600774618	2
0	1617	281.594623463278	1
0	1620	282.023235593742	0
0	1624	282.169124767568	1
0	1625	282.451847724206	0
0	1629	282.762828308456	1
0	1631	282.782292741865	2
0	1632	282.88045985467	1
0	1635	283.309071985134	0
0	1654	284.99449564204	1
0	1656	285.109726835163	2
0	1658	285.320746382514	3
0	1660	285.330035648796	4
0	1661	285.384861625465	3
0	1664	285.813473755929	2
0	1668	285.813886815815	3
0	1669	286.242085886393	2
0	1673	286.610152426864	3
0	1674	286.670698016857	2
0	1676	286.670698016857	1
0	1678	287.099310147321	0
0	1692	291.777932181568	1
0	1693	291.964496577955	0
0	1702	293.16165760219	1
0	1704	293.205493105963	2
0	1705	293.295184384778	1
0	1708	293.723796515242	0
0	1717	295.017690113281	1
0	1719	295.19601221228	2
0	1720	295.314960343487	1
0	1723	295.743572473951	0
0	1747	300.550684667128	1
0	1748	300.791817752172	0
0	1772	307.022611520642	1
0	1774	307.218268070643	2
0	1777	307.514630439767	1
0	1780	307.53802714178	2
0	1782	307.690595420515	3
0	1784	307.827080005446	4
0	1785	307.943242570231	3
0	1788	308.371854700695	2
0	1792	308.406387970514	3
0	1793	308.800466831159	2
0	1795	308.800466831159	1
0	1797	309.229078961623	0
0	1811	310.963915694202	1
0	1812	311.148951035264	0
0	1816	311.261414540321	1
0	1817	311.577563165728	0
0	1826	312.345600320226	1
0	1828	312.345657800527	2
0	1829	312.575679110904	1
0	1833	312.850634240208	2
0	1834	313.004291241368	1
0	1838	313.056957945746	2
0	1839	313.432903371832	1
0	1842	313.861515502296	0
0	1861	315.70647708711	1
0	1862	315.970804147562	0
0	1876	318.001549658206	1
0	1877	318.384488487902	0
0	1881	318.427260407636	1
0	1883	318.591015534174	2
0	1884	318.813100618366	1
0	1887	319.24171274883	0
0	1891	319.302471673793	1
0	1893	319.302751484633	2
0	1895	319.473302586858	3
0	1897	319.545631980928	4
0	1898	319.670324879294	3
0	1902	319.872109653996	4
0	1903	320.098937009758	3
0	1906	320.527549140222	2
0	1908	320.527549140222	1
0	1911	320.800433780695	2
0	1912	320.956161270686	1
0	1914	320.956161270686	0
0	1922	322.729853729954	1
0	1923	322.767517033658	0
0	1932	323.905364062132	1
0	1933	324.325775452346	0
0	1937	324.435496073508	1
0	1938	324.75438758281	0
0	1942	325.120584984417	1
0	1943	325.182999713274	0
0	1947	325.20165086837	1
0	1949	325.265550332056	2
0	1950	325.611611843738	1
0	1953	326.040223974202	0
0	1967	327.283752092082	1
0	1968	327.651980831573	0
0	1977	328.182818710632	1
0	1978	328.547225403632	0
0	1987	329.678023483208	1
0	1988	329.972696133666	0
0	1992	330.125820370062	1
0	1994	330.280838750155	2
0	1995	330.40130826413	1
0	1999	330.591233172943	2
0	2000	330.829920394594	1
0	2003	331.258532525058	0
0	2007	331.543991514949	1
0	2008	331.687144655522	0
0	2022	333.603652961428	1
0	2023	333.744604421328	0
0	2032	335.269543897057	1
0	2033	335.52143837664	0
0	2052	338.19356805621	1
0	2054	338.254594952174	2
0	2055	338.329065225686	1
0	2058	338.75767735615	0
0	2062	339.159508776181	1
0	2063	339.186289486614	0
0	2067	339.36380748192	1
0	2069	339.488722782848	2
0	2070	339.614901617078	1
0	2073	340.043513747542	0
0	2082	343.902444681795	1
0	2083	344.002342145679	0
0	2087	344.125951544718	1
0	2088	344.430954276143	0
0	2132	355.107534600324	1
0	2135	355.595150826394	0
0	2138	356.02042552456	1
0	2139	356.023762956858	0
0	2143	356.174648430523	1
0	2144	356.452375087322	0
0	2148	356.513258149631	1
0	2149	356.880987217786	0
0	2173	361.261493858154	1
0	2174	361.474274947602	0
0	2178	361.533314203558	1
0	2179	361.902887078066	0
0	2188	364.223445901259	1
0	2189	364.508246260011	0
0	2193	364.622716655464	1
0	2194	364.936858390475	0
0	2198	365.173904940948	1
0	2199	365.365470520939	0
0	2203	365.721035235027	1
0	2204	365.794082651403	0
0	2208	365.958692990872	1
0	2210	366.133919761964	2
0	2211	366.222694781867	1
0	2215	366.496828663672	2
0	2216	366.651306912331	1
0	2220	366.697750253727	2
0	2222	366.766434130955	3
0	2223	367.079919042795	2
0	2227	367.490710525678	3
0	2228	367.508531173259	2
0	2232	367.58387317766	3
0	2234	367.705436005403	4
0	2235	367.937143303723	3
0	2237	367.937143303723	2
0	2239	368.365755434187	1
0	2242	368.794367564651	0
0	2264	372.787596322096	1
0	2265	372.991871875844	0
0	2269	373.177703059606	1
0	2270	373.420484006308	0
0	2284	376.386963178113	1
0	2285	376.7653955572	0
0	2294	378.884622178603	1
0	2296	378.921850177075	2
0	2297	378.932973838057	1
0	2300	379.361585968521	0
0	2304	379.387965495058	1
0	2306	379.590065306578	2
0	2307	379.790198098985	1
0	2311	380.01779318371	2
0	2313	380.145982974572	3
0	2314	380.218810229449	2
0	2317	380.647422359913	1
0	2320	381.076034490377	0
0	2349	385.91010399236	1
0	2350	386.204336515853	0
0	2359	387.287498442327	1
0	2360	387.557215343386	0
0	2364	387.598343339806	1
0	2366	387.982182523197	2
0	2367	387.98582747385	1
0	2371	387.99183139263	2
0	2373	388.267147445302	3
0	2374	388.414439604314	2
0	2378	388.780028293606	3
0	2379	388.843051734778	2
0	2383	389.05633737414	3
0	2385	389.089804528952	4
0	2386	389.271663865242	3
0	2389	389.700275995706	2
0	2392	390.12888812617	1
0	2394	390.12888812617	0
0	2400	391.718456923652	1
0	2401	391.802089035745	0
0	2405	391.905266956313	1
0	2407	392.224997904934	2
0	2408	392.230701166209	1
0	2412	392.268626570421	2
0	2413	392.659313296673	1
0	2417	392.838187696469	2
0	2418	393.087925427137	1
0	2422	393.318860769668	2
0	2423	393.516537557601	1
0	2426	393.945149688065	0
0	2485	404.734606090283	1
0	2486	404.912420918255	0
0	2490	404.937940091258	1
0	2491	405.341033048719	0
0	2497	405.777948742753	1
0	2498	405.884094629231	0
0	2501	406.073078472814	1
0	2502	406.312706759695	0
0	2516	410.943946913511	1
0	2517	411.062324786363	0
0	2521	411.209063570608	1
0	2522	411.490936916827	0
0	2531	413.789898491318	1
0	2532	413.889480078518	0
0	2546	415.264623173779	1
0	2548	415.308085733277	2
0	2549	415.459911450175	1
0	2553	415.49706392155	2
0	2554	415.888523580639	1
0	2558	416.214745619372	2
0	2559	416.317135711103	1
0	2563	416.71849420869	2
0	2565	416.734802928609	3
0	2566	416.745747841567	2
0	2569	417.174359972031	1
0	2572	417.602972102495	0
0	2586	420.513348408244	1
0	2588	420.586807557896	2
0	2589	420.706567793442	1
0	2592	421.135179923906	0
0	2601	421.776937608237	1
0	2603	421.789598464371	2
0	2605	421.910684582493	3
0	2606	422.000808627973	2
0	2609	422.429420758437	1
0	2612	422.858032888901	0
0	2621	424.42025775527	1
0	2622	424.455383986932	0
0	2626	424.461919586398	1
0	2627	424.883996117396	0
0	2656	429.059065535533	1
0	2657	429.12877966664	0
0	2666	429.954645942195	1
0	2667	430.306604503484	0
0	2696	436.133797709747	1
0	2697	436.43359451597	0
0	2701	436.676009740409	1
0	2702	436.862206646434	0
0	2716	440.820706044264	1
0	2717	441.069456499349	0
0	2721	441.426467159574	1
0	2722	441.498068629813	0
0	2731	443.073720694933	1
0	2732	443.442182944017	0
0	2741	444.268612330285	1
0	2742	444.59257071402	0
0	2751	445.15728348886	1
0	2752	445.504491270295	0
0	2761	446.186097012454	1
0	2762	446.448308329676	0
0	2766	446.541785155486	1
0	2767	446.87692046014	0
0	2771	447.240294528544	1
0	2772	447.305532590604	0
0	2781	447.858258772624	1
0	2783	447.969949094744	2
0	2785	448.143996041926	3
0	2786	448.163671678612	2
0	2789	448.592283809076	1
0	2793	448.757079555779	2
0	2794	449.02089593954	1
0	2797	449.449508070004	0
0	2801	449.566834310433	1
0	2802	449.878120200468	0
0	2806	450.158351403165	1
0	2808	450.280932358055	2
0	2809	450.306732330932	1
0	2812	450.735344461396	0
0	2816	450.935908088264	1
0	2817	451.16395659186	0
0	2826	451.657246746245	1
0	2827	452.078959396458	0
0	2836	453.450549864176	1
0	2838	453.694570764098	2
0	2839	453.758773203416	1
0	2843	453.821460362017	2
0	2844	454.18738533388	1
0	2848	454.315534915262	2
0	2851	454.730446914392	1
0	2854	454.794707799138	2
0	2855	455.159059044856	1
0	2858	455.58767117532	0
0	2862	455.826692327306	1
0	2863	456.016283305784	0
0	2867	456.246294140743	1
0	2868	456.444895436248	0
0	2872	456.457789504078	1
0	2874	456.86327195725	2
0	2875	456.873507566712	1
0	2878	457.302119697176	0
0	2897	459.650007869098	1
0	2898	460.075148736728	0
0	2902	460.477857921057	1
0	2903	460.503760867192	0
0	2912	462.02592618064	1
0	2913	462.440149537058	0
0	2917	462.476571565666	1
0	2918	462.868761667522	0
0	2927	464.559936630737	1
0	2928	464.830289422959	0
0	2957	470.864858545907	1
0	2958	471.156508912264	0
0	2962	471.369798509686	1
0	2963	471.585121042728	0
0	2972	473.555490907513	1
0	2973	473.796534488823	0
0	2997	482.546611364937	1
0	2998	482.915802051823	0
0	3017	485.768498063927	1
0	3018	485.81663075682	0
0	3022	486.039967460612	1
0	3024	486.103105466723	2
0	3025	486.245242887284	1
0	3028	486.673855017748	0
0	3032	486.983404542273	1
0	3033	487.102467148212	0
0	3042	488.181905709276	1
0	3043	488.340422760133	0
0	3047	488.700978583225	1
0	3048	488.769034890597	0
0	3052	489.090799205939	1
0	3053	489.197647021061	0
0	3057	489.533268534685	1
0	3058	489.626259151525	0
0	3072	493.058441883377	1
0	3073	493.080180787749	0
0	3077	493.103800841199	1
0	3078	493.508792918213	0
0	3092	495.321222108321	1
0	3093	495.486391416818	0
0	3097	495.874212216164	1
0	3098	495.915003547282	0
0	3112	500.100041058397	1
0	3114	500.123291020874	2
0	3115	500.48904653145	1
0	3118	500.917658661914	0
0	3147	506.779925491428	1
0	3149	506.891217992607	2
0	3150	507.052642415252	1
0	3153	507.481254545716	0
0	3177	510.773789885731	1
0	3179	510.90231586838	2
0	3180	511.016403864132	1
0	3183	511.445015994596	0
0	3218	520.703611189303	1
0	3220	520.928105215389	2
0	3221	521.106454226014	1
0	3224	521.535066356478	0
0	3233	522.683459834197	1
0	3234	522.94893267886	0
0	3248	525.010344545531	1
0	3250	525.057606793135	2
0	3251	525.202628349378	1
0	3255	525.377469516705	2
0	3256	525.631240479842	1
0	3259	526.059852610306	0
0	3268	528.539965847648	1
0	3269	528.614075446186	0
0	3283	531.411856421359	1
0	3284	531.602090690653	0
0	3298	535.307196231738	1
0	3299	535.566779018324	0
0	3318	539.08365004492	1
0	3319	539.162517119138	0
0	3333	540.898515666076	1
0	3334	541.108445959831	0
0	3353	544.254444565117	1
0	3354	544.672692601701	0
0	3378	548.163817190715	1
0	3379	548.420108607056	0
0	3383	548.619694883422	1
0	3385	548.638482922647	2
0	3387	548.707153493343	3
0	3388	548.84872073752	2
0	3391	549.277332867984	1
0	3395	549.321593988327	2
0	3397	549.379908388755	3
0	3398	549.705944998448	2
0	3401	550.134557128912	1
0	3405	550.255207873934	2
0	3407	550.439816554054	3
0	3408	550.563169259376	2
0	3410	550.563169259376	1
0	3412	550.99178138984	0
0	3431	558.922324475158	1
0	3432	559.297472682022	0
0	3456	563.350820907243	1
0	3457	563.383947298984	0
0	3461	563.412859379642	1
0	3463	563.546920091676	2
0	3464	563.812559429448	1
0	3467	564.241171559912	0
0	3486	568.003940764948	1
0	3487	568.422989888847	0
0	3491	568.752882893108	1
0	3492	568.851602019311	0
0	3496	569.115456706232	1
0	3497	569.280214149775	0
0	3516	573.141605394209	1
0	3518	573.247425632423	2
0	3519	573.320531793945	1
0	3523	573.350534417319	2
0	3525	573.434594663114	3
0	3526	573.749143924409	2
0	3529	574.177756054873	1
0	3533	574.223719437878	2
0	3534	574.606368185337	1
0	3536	574.606368185337	0
0	3544	575.502551255769	1
0	3545	575.763925312442	0
0	3570	579.994992738281	1
0	3571	580.34762155414	0
0	3590	585.121978358137	1
0	3591	585.406235671653	0
0	3595	585.42113290269	1
0	3597	585.834333499256	2
0	3598	585.834847802117	1
0	3601	586.263459932581	0
0	3635	592.76218779507	1
0	3636	593.139872511751	0
0	3640	593.358336331343	1
0	3641	593.568484642215	0
0	3655	596.029179364034	1
0	3656	596.136933388727	0
0	3670	598.619442001886	1
0	3671	598.728096446314	0
0	3705	605.824587061766	1
0	3706	606.037981890136	0
0	3710	606.390692698257	1
0	3711	606.4665940206	0
0	3730	609.651817078592	1
0	3731	609.817520222779	0
0	3735	610.1580801399	1
0	3737	610.219730858778	2
0	3739	610.243997654785	3
0	3740	610.246132353243	2
0	3744	610.584620280931	3
0	3745	610.674744483707	2
0	3748	611.103356614171	1
0	3752	611.457933321189	2
0	3754	611.460880030818	3
0	3755	611.531968744635	2
0	3758	611.960580875099	1
0	3761	612.389193005563	0
0	3775	613.94906355155	1
0	3777	613.996162670918	2
0	3779	614.018735141235	3
0	3780	614.085901044623	2
0	3784	614.42234802693	3
0	3785	614.514513175087	2
0	3788	614.943125305551	1
0	3791	615.371737436015	0
0	3820	619.856370433999	1
0	3822	619.986068521131	2
0	3823	620.060299351165	1
0	3826	620.488911481629	0
0	3830	620.52119178917	1
0	3831	620.917523612093	0
0	3835	621.048691736057	1
0	3836	621.346135742557	0
0	3840	621.689870818361	1
0	3841	621.774747873021	0
0	3845	621.971766905759	1
0	3846	622.203360003485	0
0	3870	627.825498876411	1
0	3871	628.236432556995	0
0	3875	628.366594910119	1
0	3876	628.665044687459	0
0	3890	631.92632173369	1
0	3891	632.138782226047	0
0	3900	634.994045789843	1
0	3901	635.076571230313	0
0	3911	636.118994838413	1
0	3912	636.296987217159	0
0	3936	641.058679034609	1
0	3937	641.463451297357	0
0	3956	645.302508383946	1
0	3957	645.308047601266	0
0	3966	646.925552482255	1
0	3967	647.035945171758	0
0	3976	647.678785076049	1
0	3977	648.042318161489	0
0	3986	649.085614110829	1
0	3987	649.143253500518	0
0	4026	659.848852530883	1
0	4028	659.947140515423	2
0	4029	660.171891270801	1
0	4032	660.600503401265	0
0	4041	661.736044933804	1
0	4042	662.055036040367	0
0	4046	662.060131100312	1
0	4048	662.095042516324	2
0	4049	662.483648170831	1
0	4053	662.514582640142	2
0	4054	662.912260301295	1
0	4058	662.951324374965	2
0	4059	663.340872431759	1
0	4062	663.769484562223	0
0	4076	667.066939896442	1
0	4077	667.161432688801	0
0	4096	670.08818082779	1
0	4097	670.442296174123	0
0	4111	672.808407161633	1
0	4112	672.948356096035	0
0	4116	673.341742187866	1
0	4117	673.376968226499	0
0	4131	675.391175619173	1
0	4132	675.642934227025	0
0	4156	679.90656385929	1
0	4157	680.334723120356	0
0	4161	680.612515402984	1
0	4162	680.76333525082	0
0	4171	683.590194098096	1
0	4172	683.858021024737	0
0	4176	684.010444618977	1
0	4177	684.286633155201	0
0	4196	688.037990356068	1
0	4197	688.289076863772	0
0	4206	689.855643963222	1
0	4207	690.050453716123	0
0	4216	691.011737478052	1
0	4218	691.06051261754	2
0	4219	691.178077602288	1
0	4223	691.275547499622	2
0	4224	691.606689732752	1
0	4228	691.975247623783	2
0	4229	692.035301863216	1
0	4233	692.128703492166	2
0	4234	692.46391399368	1
0	4238	692.790583745574	2
0	4240	692.862394433748	3
0	4241	692.892526124144	2
0	4244	693.321138254608	1
0	4247	693.749750385072	0
0	4251	694.068888627222	1
0	4252	694.178362515536	0
0	4256	694.246212678807	1
0	4259	694.721424096048	0
0	4267	695.440866255245	1
0	4269	695.668539974144	2
0	4270	695.694808691376	1
0	4273	696.12342082184	0
0	4292	699.247114008852	1
0	4293	699.400370605968	0
0	4307	702.899298224683	1
0	4308	702.953455748879	0
0	4312	703.281709266213	1
0	4313	703.382067879343	0
0	4332	707.020051760445	1
0	4334	707.106564683549	2
0	4335	707.357542838086	1
0	4338	707.78615496855	0
0	4352	711.084635683702	1
0	4353	711.142955646688	0
0	4357	711.50937663913	1
0	4358	711.571567777152	0
0	4367	712.421167335764	1
0	4368	712.652689929446	0
0	4382	716.446744177665	1
0	4384	716.684591391326	2
0	4385	716.693292193274	1
0	4389	716.820402894839	2
0	4390	717.121904323738	1
0	4394	717.435269429598	2
0	4395	717.550516454202	1
0	4398	717.979128584666	0
0	4407	718.649537310071	1
0	4408	718.889800671207	0
0	4417	721.314653937119	1
0	4418	721.425230918302	0
0	4422	721.614111761541	1
0	4423	721.853843048766	0
0	4437	724.547766603595	1
0	4438	724.558817342525	0
0	4452	728.120743487141	1
0	4453	728.185638746269	0
0	4457	728.308479597826	1
0	4459	728.51770110322	2
0	4461	728.586964595081	3
0	4462	728.614250876733	2
0	4466	728.622041952262	3
0	4468	728.956711027682	4
0	4469	729.042863007197	3
0	4472	729.471475137661	2
0	4475	729.900087268125	1
0	4477	729.900087268125	0
0	4480	729.907057638807	1
0	4481	730.328699398589	0
0	4490	731.251738176606	1
0	4492	731.367531051655	2
0	4493	731.504868526075	1
0	4496	731.933480656539	0
0	4500	732.124822585332	1
0	4501	732.362092787003	0
0	4555	744.964159742364	1
0	4556	745.368077430043	0
0	4560	745.685074568477	1
0	4561	745.796689560507	0
0	4565	745.98588773599	1
0	4566	746.225301690971	0
0	4575	746.972558139765	1
0	4576	747.173074398532	0
0	4590	749.251707470903	1
0	4591	749.405806108531	0
0	4605	751.046600500929	1
0	4607	751.316518626563	2
0	4609	751.353976988828	3
0	4610	751.45959335841	2
0	4614	751.587606766535	3
0	4616	751.596804411453	4
0	4618	751.621582937287	5
0	4621	752.002654938922	4
0	4624	752.169658931831	5
0	4625	752.431267069386	4
0	4627	752.431267069386	3
0	4630	752.497302440151	4
0	4631	752.85987919985	3
0	4633	752.85987919985	2
0	4634	752.85987919985	1
0	4637	753.025210096939	2
0	4638	753.288491330314	1
0	4641	753.717103460778	0
0	4660	760.756251823908	1
0	4661	760.86415732254	0
0	4670	761.605007997013	1
0	4671	761.788098254754	0
0	4675	761.796630042433	1
0	4676	762.216710385218	0
0	4690	764.219356811053	1
0	4691	764.245904443092	0
0	4695	764.522446356664	1
0	4696	764.674516573556	0
0	4720	767.995359473791	1
0	4721	768.307539431328	0
0	4740	772.712071540518	1
0	4742	772.91371558749	2
0	4743	773.098454390475	1
0	4747	773.433119910333	2
0	4748	773.527066520939	1
0	4751	773.955678651403	0
0	4760	775.926452484924	1
0	4761	776.150525597678	0
0	4765	776.423104823343	1
0	4766	776.579137728142	0
0	4770	776.719313729354	1
0	4771	777.007749858606	0
0	4790	779.597912405589	1
0	4791	779.935902064608	0
0	4805	781.865568006688	1
0	4806	782.231379342777	0
0	4815	782.924313878755	1
0	4816	783.098647712434	0
0	4820	783.324532244978	1
0	4821	783.527259842898	0
0	4825	783.617417807228	1
0	4826	783.955871973362	0
0	4835	785.007915328905	1
0	4836	785.185974773168	0
0	4840	785.457077194033	1
0	4841	785.614586903632	0
0	4865	790.225158970531	1
0	4866	790.462786780068	0
0	4870	790.550353122028	1
0	4871	790.891398910532	0
0	4890	794.747334542617	1
0	4892	794.885401343427	2
0	4893	795.020161480154	1
0	4896	795.448773610618	0
0	4910	801.820017395052	1
0	4911	802.172473796764	0
0	4915	802.455157222778	1
0	4916	802.601085927228	0
0	4925	806.259774036966	1
0	4926	806.467480700558	0
0	4930	806.796877868395	1
0	4931	806.896092831022	0
0	4935	807.228779524483	1
0	4936	807.324704961486	0
0	4940	807.351785756629	1
0	4942	807.740297663075	2
0	4943	807.75331709195	1
0	4947	807.863915510866	2
0	4949	807.915512249252	3
0	4950	808.181929222414	2
0	4954	808.561774589739	3
0	4955	808.610541352878	2
0	4959	808.675304795067	3
0	4960	809.039153483342	2
0	4962	809.039153483342	1
0	4964	809.467765613806	0
0	4968	809.718247661725	1
0	4969	809.89637774427	0
0	4973	810.128288369509	1
0	4977	810.396216010642	2
0	4978	810.439439324782	1
0	4980	810.868051455246	0
0	4984	811.224027876958	1
0	4985	811.29666358571	0
0	4989	811.413798297058	1
0	4990	811.725275716174	0
0	5004	814.228468672166	1
0	5005	814.473005453082	0
0	5009	814.568482585689	1
0	5011	814.666416950702	2
0	5012	814.901617583546	1
0	5015	815.33022971401	0
0	5044	823.416714446298	1
0	5046	823.592647044213	2
0	5047	823.623151265598	1
0	5050	824.051763396062	0
0	5084	831.652830884472	1
0	5086	831.695255991447	2
0	5087	831.830973972354	1
0	5090	832.259586102818	0
0	5099	833.284103372963	1
0	5101	833.350435934839	2
0	5103	833.595796386617	3
0	5104	833.677642821517	2
0	5108	834.006347907281	3
0	5109	834.106254951981	2
0	5112	834.534867082445	1
0	5115	834.963479212909	0
0	5119	835.056066731607	1
0	5120	835.392091343373	0
0	5139	843.44399045161	1
0	5140	843.445763088762	0
0	5144	843.634305295805	1
0	5145	843.874375219226	0
0	5149	844.250481405213	1
0	5150	844.30298734969	0
0	5154	844.468947419004	1
0	5155	844.731599480154	0
0	5159	844.867895261686	1
0	5160	845.160211610618	0
0	5164	845.262643834327	1
0	5166	845.285860063081	2
0	5167	845.588823741082	1
0	5170	846.017435871546	0
0	5174	846.19069669516	1
0	5175	846.44604800201	0
0	5179	846.50489264375	1
0	5180	846.874660132474	0
0	5194	850.574463229584	1
0	5195	850.700560378869	0
0	5199	851.098611400619	1
0	5200	851.129172509333	0
0	5209	854.534570552944	1
0	5210	854.861722936916	0
0	5219	855.596206628065	1
0	5221	855.606559345194	2
0	5222	855.901512022965	1
0	5225	856.330124153429	0
0	5234	858.514423296133	1
0	5235	858.845797925048	0
0	5249	862.467193954193	1
0	5250	862.884948046101	0
0	5254	863.195568249226	1
0	5255	863.313560176565	0
0	5259	863.426264950651	1
0	5260	863.742172307029	0
0	5284	868.243190591855	1
0	5286	868.360554960656	2
0	5288	868.512605460169	3
0	5289	868.609005998165	2
0	5292	869.037618128629	1
0	5296	869.166831416364	2
0	5297	869.466230259093	1
0	5300	869.894842389557	0
0	5330	880.789628392514	1
0	5332	880.807919923704	2
0	5333	881.203285409905	1
0	5337	881.575019405416	2
0	5338	881.631897540369	1
0	5341	882.060509670833	0
0	5355	883.802189048384	1
0	5357	883.89878158022	2
0	5358	884.167706544901	1
0	5361	884.596318675365	0
0	5375	887.806215015635	1
0	5376	887.816525924449	0
0	5380	887.836789542027	1
0	5382	888.110373051675	2
0	5383	888.245138054913	1
0	5387	888.469777898115	2
0	5388	888.673750185377	1
0	5392	889.007320759395	2
0	5394	889.051191151223	3
0	5395	889.102362315841	2
0	5398	889.530974446305	1
0	5402	889.705572932973	2
0	5403	889.959586576769	1
0	5407	890.341636512359	2
0	5408	890.388198707233	1
0	5411	890.816810837697	0
0	5415	890.979549063265	1
0	5416	891.245422968161	0
0	5435	896.91083921055	1
0	5436	897.272507602284	0
0	5445	898.178384780847	1
0	5446	898.366069131002	0
0	5455	899.144827064322	1
0	5456	899.475452283194	0
0	5460	899.6721803212	1
0	5462	899.809041940949	2
0	5464	899.869477854027	3
0	5466	899.875285403031	4
0	5467	899.904064413658	3
0	5471	900.009290472362	4
0	5472	900.332676544122	3
0	5475	900.761288674586	2
0	5478	901.18990080505	1
0	5480	901.18990080505	0
0	5501	907.447528160165	1
0	5502	907.470880819043	0
0	5516	911.005952366371	1
0	5517	911.226154493958	0
0	5526	912.247573664114	1
0	5528	912.658079503177	2
0	5529	912.674423090113	1
0	5533	912.700526010594	2
0	5534	913.103035220577	1
0	5538	913.296685813354	2
0	5539	913.531647351041	1
0	5542	913.960259481505	0
0	5561	917.362744733916	1
0	5562	917.773850835169	0
0	5566	917.870628476367	1
0	5567	918.202462965633	0
0	5581	922.224064989314	1
0	5582	922.611094531367	0
0	5601	926.192917228481	1
0	5603	926.297211013544	2
0	5604	926.47523672548	1
0	5607	926.903848855944	0
0	5616	928.543010351529	1
0	5618	928.783546961307	2
0	5619	928.896736992727	1
0	5622	929.325349123191	0
0	5636	932.274500797903	1
0	5637	932.324246635603	0
0	5641	932.51468019741	1
0	5643	932.6340415809	2
0	5644	932.752858766067	1
0	5648	932.82489200575	2
0	5649	933.181470896531	1
0	5653	933.437608819535	2
0	5654	933.610083026995	1
0	5657	934.038695157459	0
0	5661	934.185270015438	1
0	5662	934.467307287923	0
0	5666	934.748116859842	1
0	5667	934.895919418387	0
0	5671	935.148678118151	1
0	5672	935.324531548851	0
0	5681	936.03047960521	1
0	5684	936.402582869877	0
0	5697	938.199204600591	1
0	5699	938.347413987885	2
0	5700	938.383608945645	1
0	5704	938.490034387272	2
0	5705	938.812221076109	1
0	5708	939.240833206573	0
0	5722	942.939643355953	1
0	5724	943.128332024389	2
0	5725	943.174316865508	1
0	5729	943.544570282826	2
0	5730	943.602928995972	1
0	5734	943.850279999013	2
0	5735	944.031541126436	1
0	5739	944.40313839129	2
0	5740	944.4601532569	1
0	5743	944.888765387364	0
0	5752	947.010925593001	1
0	5754	947.13689599699	2
0	5755	947.234523551602	1
0	5758	947.663135682066	0
0	5777	949.536781814791	1
0	5779	949.624580488447	2
0	5780	949.762135368895	1
0	5783	950.190747499359	0
0	5787	950.612471294206	1
0	5788	950.619359629823	0
0	5792	950.635269003161	1
0	5793	951.047971760287	0
0	5797	951.156777100212	1
0	5798	951.476583890751	0
0	5802	951.494632507811	1
0	5804	951.807687266399	2
0	5805	951.905196021215	1
0	5808	952.333808151679	0
0	5812	952.427193757713	1
0	5813	952.762420282143	0
0	5832	956.868596155191	1
0	5833	957.004947180706	0
0	5837	957.203538075317	1
0	5838	957.43355931117	0
0	5877	968.572545645482	1
0	5878	968.773561747617	0
0	5887	970.587175486391	1
0	5888	970.648289996446	0
0	5897	971.695359874857	1
0	5899	971.970145967251	2
0	5901	972.017970605425	3
0	5902	972.080763804085	2
0	5906	972.11058200385	3
0	5907	972.509375934549	2
0	5911	972.791948948082	3
0	5912	972.937988065013	2
0	5916	973.076293051409	3
0	5918	973.328524942509	4
0	5919	973.366600195477	3
0	5921	973.366600195477	2
0	5924	973.417526689307	3
0	5925	973.795212325941	2
0	5928	974.223824456405	1
0	5931	974.652436586869	0
0	5938	974.953381999416	1
0	5939	975.09221092066	0
0	5943	975.502968105512	1
0	5944	975.520823051124	0
0	5948	975.827609051287	1
0	5949	975.949435181588	0
0	5953	976.22336032733	1
0	5954	976.378047312052	0
0	5963	978.014212985259	1
0	5964	978.332522187535	0
0	5978	981.252330610729	1
0	5979	981.605106141576	0
0	5988	983.058255094377	1
0	5989	983.183521932915	0
0	6003	985.959502951758	1
0	6004	986.353316716044	0
0	6008	986.570539476987	1
0	6009	986.781928846508	0
0	6038	991.731001482105	1
0	6041	992.188795494551	0
0	6044	992.483216246439	1
0	6045	992.617407625015	0
0	6049	992.642126235409	1
0	6051	992.932559599756	2
0	6052	993.046019755479	1
0	6055	993.474631885943	0
0	6059	993.727697919014	1
0	6060	993.903244016407	0
1	5	0.731420754315	0.428612130464
1	14	2.794282048696	0.428612130464
1	19	3.22289417916	0.626953338182
1	22	3.651506309624	0.945105414844
1	27	4.080118440088	0.965688916616
1	30	4.508730570552	0.747427541854
1	39	5.050447439747	0.428612130464
1	44	5.479059570211	0.854770306913
1	47	5.907671700675	1.224390904613
1	52	6.336283831139	0.982636675125
1	55	6.764895961603	0.579047814021
1	60	7.345439730771	0.428612130464
1	65	8.214159875054	0.428612130464
1	72	9.208668093546	0.428612130464
1	77	9.63728022401	0.617846349855
1	82	10.065892354474	0.487267356682
1	85	10.494504484938	0.441269860007
1	90	11.396326480216	0.428612130464
1	95	13.337837164093	0.428612130464
1	100	13.921504890817	0.428612130464
1	109	15.004709783625	0.428612130464
1	112	15.433321914089	0.840200502289
1	119	15.861934044553	1.238924981926
1	124	16.290546175017	0.854935462498
1	127	16.719158305481	1.015171478045
1	132	17.147770435945	1.100958114428
1	135	17.576382566409	0.563202307069
1	142	19.639105669533	0.428612130464
1	145	20.067717799997	0.800361261661
1	150	21.261306201014	0.428612130464
1	155	23.598221871998	0.428612130464
1	160	24.125803202316	0.428612130464
1	165	25.92785142032	0.428612130464
1	170	26.374206021447	0.428612130464
1	175	27.792512946777	0.428612130464
1	182	28.37229315048	0.428612130464
1	185	28.800905280944	0.719135542465
1	194	29.595909602141	0.428612130464
1	197	30.024521732605	0.766502524731
1	200	30.453133863069	1.0678620394
1	205	31.164846054302	0.428612130464
1	210	32.830605367181	0.428612130464
1	215	34.142325525661	0.428612130464
1	220	36.069173611834	0.428612130464
1	225	36.539567907548	0.428612130464
1	230	38.419435154779	0.428612130464
1	237	39.671718257954	0.428612130464
1	240	40.100330388418	0.521083692523
1	251	41.690456139842	0.428612130464
1	256	42.119068270306	0.785000454195
1	259	42.54768040077	1.087464032502
1	265	42.976292531234	1.10377422607
1	270	43.404904661698	0.647685816333
1	275	43.833516792162	0.560650518088
1	278	44.262128922626	0.466421903716
1	283	45.944654913615	0.428612130464
1	288	48.065806917887	0.428612130464
1	293	49.320735249663	0.428612130464
1	298	52.061490744099	0.428612130464
1	303	53.148894286323	0.428612130464
1	308	53.70749196819	0.428612130464
1	315	55.023662517883	0.428612130464
1	320	55.452274648347	0.452564374369
1	323	55.880886778811	0.446316920378
1	330	57.017359216744	0.428612130464
1	333	57.445971347208	0.597796677247
1	338	57.948390983308	0.428612130464
1	343	58.50712703299	0.428612130464
1	350	59.288053882544	0.428612130464
1	353	59.716666013008	0.668143996837
1	361	60.25972759352	0.533647044374
1	364	60.688339723984	0.680022189469
1	369	64.253360754771	0.428612130464
1	374	64.868147220547	0.428612130464
1	379	65.931942740834	0.428612130464
1	384	67.252090322072	0.428612130464
1	391	68.096955064321	0.428612130464
1	394	68.525567194785	0.547823004146
1	401	70.271321477731	0.428612130464
1	404	70.699933608195	0.683487917896
1	409	71.867602096238	0.428612130464
1	416	76.468005027638	0.428612130464
1	421	76.896617158102	0.757060962967
1	424	77.325229288566	0.450943794206
1	429	77.821048960951	0.428612130464
1	434	78.706856651465	0.428612130464
1	441	80.39446460455	0.428612130464
1	444	80.823076735014	0.603130805888
1	451	82.510464514007	0.428612130464
1	456	82.939076644471	0.809529098447
1	459	83.367688774935	0.437407261209
1	464	85.924865003381	0.428612130464
1	471	86.554574275748	0.428612130464
1	478	86.983186406212	0.791170902062
1	481	87.411798536676	0.799650023962
1	488	87.84041066714	1.202903027064
1	491	88.269022797604	0.809177534311
1	494	88.697634928068	1.173026406367
1	499	91.705259072786	0.428612130464
1	504	92.562196271342	0.428612130464
1	509	93.155870789054	0.428612130464
1	514	93.694376081646	0.428612130464
1	519	94.175398168363	0.428612130464
1	524	94.974412383377	0.428612130464
1	529	96.926273850168	0.428612130464
1	536	97.431231353207	0.428612130464
1	539	97.859843483671	0.728089333377
1	546	98.522610600605	0.428612130464
1	549	98.951222731069	0.455987321401
1	556	99.979429832059	0.428612130464
1	559	100.408041962523	0.589410082253
1	566	100.885978575876	0.428612130464
1	569	101.31459070634	0.794643970004
1	576	102.105919930675	0.428612130464
1	581	102.534532061139	0.764132649592
1	584	102.963144191603	0.642917064985
1	593	104.427528018011	0.428612130464
1	596	104.856140148475	0.67080828986
1	603	105.284752278939	1.055513999587
1	608	105.713364409403	0.808571398911
1	613	106.141976539867	0.958146353941
1	616	106.570588670331	1.085325783534
1	619	106.999200800795	0.955521958538
1	624	108.145647596062	0.428612130464
1	629	109.129954870513	0.428612130464
1	634	109.664095384394	0.428612130464
1	641	110.193416459409	0.428612130464
1	644	110.622028589873	0.778642244513
1	649	111.208330541792	0.428612130464
1	654	113.700338440078	0.428612130464
1	659	114.687768250809	0.428612130464
1	668	116.354800587426	0.428612130464
1	673	116.78341271789	0.764140254772
1	678	117.212024848354	0.90719415722
1	681	117.640636978818	1.165339951149
1	688	118.069249109282	0.942732748515
1	693	118.497861239746	0.676518087523
1	700	118.92647337021	0.988091340073
1	703	119.355085500674	1.207152965855
1	706	119.783697631138	1.043553350582
1	713	120.89583579843	0.428612130464
1	718	121.454203037127	0.428612130464
1	723	121.974244243812	0.428612130464
1	730	123.234300044787	0.428612130464
1	733	123.662912175251	0.765703217356
1	738	125.301042116124	0.428612130464
1	743	127.311205586025	0.428612130464
1	748	128.187913259919	0.428612130464
1	757	128.801053768643	0.428612130464
1	762	129.229665899107	0.745434157903
1	765	129.658278029571	1.089889392107
1	770	130.086890160035	0.971942531016
1	773	130.515502290499	0.445185914649
1	778	130.956829085112	0.428612130464
1	787	131.618140609932	0.428612130464
1	794	132.046752740396	0.692183570582
1	797	132.47536487086	0.921853492139
1	800	132.903977001324	0.989330337821
1	807	133.332589131788	1.404915829917
1	810	133.761201262252	0.751078438953
1	813	134.189813392716	0.899432795231
1	820	137.094016597254	0.428612130464
1	823	137.522628727718	0.707798269565
1	828	138.769369552506	0.428612130464
1	833	139.842495145066	0.428612130464
1	840	140.570751386176	0.428612130464
1	843	140.99936351664	0.780247939629
1	848	146.458403925263	0.428612130464
1	853	148.152188211705	0.428612130464
1	858	149.079510683282	0.428612130464
1	865	150.711095553371	0.428612130464
1	872	151.139707683835	0.777382172219
1	875	151.568319814299	0.704148205331
1	880	151.996931944763	0.989800916258
1	885	152.425544075227	0.712996034639
1	888	152.854156205691	0.56474670082
1	893	153.363623802078	0.428612130464
1	898	155.40150937589	0.428612130464
1	903	155.884315479371	0.428612130464
1	910	156.362686203615	0.428612130464
1	915	156.791298334079	0.521818996303
1	918	157.219910464543	0.714417440803
1	923	159.665489725207	0.428612130464
1	928	160.911209567322	0.428612130464
1	933	162.537459874499	0.428612130464
1	938	163.190040269769	0.428612130464
1	943	163.811003030128	0.428612130464
1	948	164.428470268902	0.428612130464
1	957	166.859414330574	0.428612130464
1	962	167.288026461038	0.790010948612
1	965	167.716638591502	1.014238974528
1	970	168.145250721966	1.020899278588
1	981	168.57386285243	0.44789569554
1	984	169.002474982894	0.79913539488
1	989	169.431087113358	1.195407171376
1	994	169.859699243822	0.636275573474
1	999	172.390069214774	0.428612130464
1	1004	173.549758714233	0.428612130464
1	1011	174.054391690662	0.428612130464
1	1014	174.483003821126	0.825627111798
1	1019	175.669663903642	0.428612130464
1	1024	176.240546176156	0.428612130464
1	1031	177.332238841995	0.428612130464
1	1036	177.760850972459	0.554075798622
1	1039	178.189463102923	0.743686050567
1	1046	179.526432245713	0.428612130464
1	1049	179.955044376177	0.487530225389
1	1054	182.573117486848	0.428612130464
1	1061	183.617787583409	0.428612130464
1	1068	184.046399713873	0.435967470369
1	1074	184.589461294385	0.682962952835
1	1079	185.018073424849	1.017228677013
1	1084	185.446685555313	1.290298613576
1	1091	185.875297685777	0.934425064544
1	1096	186.303909816241	1.0384800633
1	1099	186.732521946705	1.259458937378
1	1105	187.161134077169	1.120671892428
1	1108	187.589746207633	0.504054383092
1	1113	188.215947814003	0.428612130464
1	1118	189.488872882747	0.428612130464
1	1123	190.113602673778	0.428612130464
1	1128	190.89046181859	0.428612130464
1	1133	192.060272446228	0.428612130464
1	1138	194.013550206766	0.428612130464
1	1145	196.857776707098	0.428612130464
1	1148	197.286388837562	0.476859928778
1	1155	198.511996209725	0.428612130464
1	1160	198.940608340189	0.468713569899
1	1163	199.369220470653	0.531776116122
1	1170	200.46402215364	0.428612130464
1	1173	200.892634284104	0.567517286231
1	1178	201.824826609228	0.428612130464
1	1183	203.312160360314	0.428612130464
1	1188	204.192174489019	0.428612130464
1	1193	206.268251098335	0.428612130464
1	1198	208.707767293455	0.428612130464
1	1203	209.179405071863	0.428612130464
1	1208	211.869751481692	0.428612130464
1	1215	212.309880540294	0.428612130464
1	1220	212.738492670758	0.432415471904
1	1227	213.167104801222	0.501922532951
1	1230	213.595716931686	0.784664307291
1	1237	214.02432906215	0.969916293227
1	1240	214.452941192614	0.845678585224
1	1245	214.881553323078	1.126246405535
1	1248	215.310165453542	0.469060302459
1	1255	217.176720219208	0.428612130464
1	1258	217.605332349672	0.562347558293
1	1263	219.433989050542	0.428612130464
1	1268	221.501883713232	0.428612130464
1	1273	222.517105345065	0.428612130464
1	1280	223.248143981115	0.428612130464
1	1285	223.676756111579	0.573591483152
1	1290	224.105368242043	0.690869438649
1	1293	224.533980372507	0.532294543329
1	1300	225.242252721755	0.428612130464
1	1303	225.670864852219	0.590818055992
1	1308	226.765116616533	0.428612130464
1	1313	227.836428115507	0.428612130464
1	1318	228.405708437832	0.428612130464
1	1323	228.862489263356	0.428612130464
1	1330	230.315926526875	0.428612130464
1	1335	230.744538657339	0.587158602792
1	1338	231.173150787803	0.632541505753
1	1343	231.838686288523	0.428612130464
1	1348	236.697778651004	0.428612130464
1	1353	238.024706015002	0.428612130464
1	1358	238.822906713826	0.428612130464
1	1363	241.145260653085	0.428612130464
1	1368	241.756926451012	0.428612130464
1	1373	243.355658991601	0.428612130464
1	1378	244.276912486604	0.428612130464
1	1383	244.84923892499	0.428612130464
1	1392	246.44888620322	0.428612130464
1	1395	246.877498333684	0.717275525947
1	1398	247.306110464148	1.00650993216
1	1405	249.735315357841	0.428612130464
1	1410	250.163927488305	0.638242143961
1	1413	250.592539618769	0.432014183446
1	1418	252.760124854741	0.428612130464
1	1428	254.125252403112	0.428612130464
1	1431	254.553864533576	0.812767041373
1	1436	254.98247666404	1.153658039733
1	1439	255.411088794504	0.452887861873
1	1444	256.698869563824	0.428612130464
1	1451	257.181010183017	0.428612130464
1	1454	257.609622313481	0.692696774138
1	1461	258.230408607347	0.428612130464
1	1466	258.659020737811	0.483258968968
1	1469	259.087632868275	0.83279005681
1	1474	259.65391892943	0.428612130464
1	1483	260.936681317332	0.428612130464
1	1486	261.365293447796	0.783232559758
1	1491	261.79390557826	0.922308677916
1	1496	262.222517708724	0.549394180617
1	1503	262.651129839188	0.681517063856
1	1506	263.079741969652	0.660274249722
1	1509	263.508354100116	1.065878907548
1	1516	264.542613652809	0.428612130464
1	1519	264.971225783273	0.794099858398
1	1526	266.425435523832	0.428612130464
1	1529	266.854047654296	0.580387724411
1	1536	268.032567298898	0.428612130464
1	1539	268.461179429362	0.840061656875
1	1544	271.155904779207	0.428612130464
1	1551	272.982750202469	0.428612130464
1	1554	273.411362332933	0.771980246456
1	1559	274.51288484264	0.428612130464
1	1564	275.210060748629	0.428612130464
1	1571	276.364184382577	0.428612130464
1	1574	276.792796513041	0.834294980747
1	1579	277.326709745415	0.428612130464
1	1584	278.239908763867	0.428612130464
1	1591	279.451562810958	0.428612130464
1	1598	279.880174941422	0.821277596103
1	1601	280.308787071886	0.778805815094
1	1606	280.73739920235	0.909785110591
1	1611	281.166011332814	0.524416345921
1	1618	281.594623463278	0.698436135746
1	1621	282.023235593742	0.815596471721
1	1626	282.451847724206	1.222246949588
1	1633	282.88045985467	0.711335087102
1	1636	283.309071985134	0.546243676678
1	1639	283.737684115598	0.955391373733
1	1644	284.31478416494	0.428612130464
1	1649	284.744184383891	0.428612130464
1	1662	285.384861625465	0.428612130464
1	1665	285.813473755929	0.818978113889
1	1670	286.242085886393	1.13235905123
1	1675	286.670698016857	1.349951634343
1	1679	287.099310147321	1.285423331506
1	1682	287.527922277785	0.917769850921
1	1687	288.189335373588	0.428612130464
1	1694	291.964496577955	0.428612130464
1	1697	292.393108708419	0.615176526851
1	1706	293.295184384778	0.428612130464
1	1709	293.723796515242	0.562138913052
1	1712	294.152408645706	0.946915539743
1	1721	295.314960343487	0.428612130464
1	1724	295.743572473951	0.72588236067
1	1727	296.172184604415	0.976172392135
1	1732	296.839213631885	0.428612130464
1	1737	297.714686209527	0.428612130464
1	1742	299.952374195318	0.428612130464
1	1749	300.791817752172	0.428612130464
1	1752	301.220429882636	0.669745215508
1	1757	302.322318606312	0.428612130464
1	1762	303.898505546434	0.428612130464
1	1767	305.911496468432	0.428612130464
1	1776	307.400180989719	0.428612130464
1	1786	307.943242570231	0.920631049589
1	1789	308.371854700695	1.153586630052
1	1794	308.800466831159	1.262439689379
1	1798	309.229078961623	1.401998956177
1	1801	309.657691092087	1.251303121573
1	1806	310.101774794694	0.428612130464
1	1813	311.148951035264	0.428612130464
1	1818	311.577563165728	0.613647471526
1	1821	312.006175296192	0.744760755871
1	1830	312.575679110904	0.428612130464
1	1835	313.004291241368	0.658690921142
1	1840	313.432903371832	1.087245571305
1	1843	313.861515502296	1.010881262088
1	1846	314.29012763276	1.233169687014
1	1851	314.886149430868	0.428612130464
1	1856	315.400132690278	0.428612130464
1	1863	315.970804147562	0.428612130464
1	1866	316.399416278026	0.692939190916
1	1871	317.86109470445	0.428612130464
1	1878	318.384488487902	0.428612130464
1	1885	318.813100618366	0.81155096016
1	1888	319.24171274883	0.814452341194
1	1899	319.670324879294	1.07930934512
1	1904	320.098937009758	0.796465335965
1	1907	320.527549140222	1.224797655589
1	1913	320.956161270686	1.410529289758
1	1917	321.38477340115	0.584339620455
1	1924	322.767517033658	0.428612130464
1	1927	323.196129164122	0.466275434168
1	1934	324.325775452346	0.428612130464
1	1939	324.75438758281	0.849023520678
1	1944	325.182999713274	0.747503639766
1	1951	325.611611843738	0.491026859321
1	1954	326.040223974202	0.838573105832
1	1957	326.468836104666	1.20328577261
1	1962	326.899904903679	0.428612130464
1	1969	327.651980831573	0.428612130464
1	1972	328.080592962037	0.796840869955
1	1979	328.547225403632	0.428612130464
1	1982	328.975837534096	0.793018823464
1	1989	329.972696133666	0.428612130464
1	1996	330.40130826413	0.723284780922
1	2001	330.829920394594	0.704100024532
1	2004	331.258532525058	0.977693774903
1	2009	331.687144655522	1.095911482579
1	2012	332.115756785986	0.571765271037
1	2017	333.240810815748	0.428612130464
1	2024	333.744604421328	0.428612130464
1	2027	334.173216551792	0.569563590364
1	2034	335.52143837664	0.428612130464
1	2037	335.950050507104	0.680506610047
1	2042	337.133178652669	0.428612130464
1	2047	337.882272266462	0.428612130464
1	2056	338.329065225686	0.428612130464
1	2059	338.75767735615	0.56410929994
1	2064	339.186289486614	0.93169453444
1	2071	339.614901617078	0.455392840897
1	2074	340.043513747542	0.679706265622
1	2077	340.472125878006	0.983403095158
1	2084	344.002342145679	0.428612130464
1	2089	344.430954276143	0.528509594348
1	2092	344.859566406607	0.733614861889
1	2097	346.952988129058	0.428612130464
1	2102	348.502208560118	0.428612130464
1	2107	349.042394672688	0.428612130464
1	2112	350.143283858581	0.428612130464
1	2117	350.63918032833	0.428612130464
1	2122	352.647621375221	0.428612130464
1	2127	353.982760293794	0.428612130464
1	2134	355.480701376346	0.428612130464
1	2140	356.023762956858	0.916228356534
1	2145	356.452375087322	0.431949562762
1	2150	356.880987217786	0.706338787263
1	2153	357.30959934825	0.796341198619
1	2158	359.352173928199	0.428612130464
1	2163	359.89774186182	0.428612130464
1	2168	360.614740397164	0.428612130464
1	2175	361.474274947602	0.428612130464
1	2180	361.902887078066	0.641393219912
1	2183	362.33149920853	0.798185004972
1	2190	364.508246260011	0.428612130464
1	2195	364.936858390475	0.713412489216
1	2200	365.365470520939	0.742753865475
1	2205	365.794082651403	0.620177710455
1	2212	366.222694781867	0.50165954684
1	2217	366.651306912331	0.692613921459
1	2224	367.079919042795	0.945999280831
1	2229	367.508531173259	1.011702509587
1	2236	367.937143303723	1.239393049996
1	2240	368.365755434187	0.875044908509
1	2243	368.794367564651	1.210494386991
1	2249	370.623205696163	0.428612130464
1	2254	371.087492487661	0.428612130464
1	2259	372.210375551689	0.428612130464
1	2266	372.991871875844	0.428612130464
1	2271	373.420484006308	0.632887684212
1	2274	373.849096136772	0.671393077166
1	2279	376.00475928098	0.428612130464
1	2286	376.7653955572	0.428612130464
1	2289	377.194007687664	0.807044509551
1	2298	378.932973838057	0.428612130464
1	2301	379.361585968521	0.476963789918
1	2308	379.790198098985	0.86834792191
1	2315	380.218810229449	0.830844734391
1	2318	380.647422359913	1.057357053335
1	2321	381.076034490377	1.058241306667
1	2324	381.504646620841	1.358663646269
1	2329	382.259249973847	0.428612130464
1	2334	383.419505202999	0.428612130464
1	2339	383.934208516544	0.428612130464
1	2344	385.347664156085	0.428612130464
1	2351	386.204336515853	0.428612130464
1	2354	386.632948646317	0.722844653957
1	2361	387.557215343386	0.428612130464
1	2368	387.98582747385	0.698329031523
1	2375	388.414439604314	0.816096264508
1	2380	388.843051734778	0.860869211581
1	2387	389.271663865242	1.279832472612
1	2390	389.700275995706	1.433128550404
1	2393	390.12888812617	1.348859832564
1	2402	391.802089035745	0.428612130464
1	2409	392.230701166209	0.512244242557
1	2414	392.659313296673	0.75404634036
1	2419	393.087925427137	0.862927522203
1	2424	393.516537557601	1.24791098718
1	2427	393.945149688065	1.106961991596
1	2430	394.373761818529	1.054901048861
1	2435	396.739909108201	0.428612130464
1	2440	397.281560182676	0.428612130464
1	2445	398.331526645896	0.428612130464
1	2450	398.985949602321	0.428612130464
1	2455	400.019872681545	0.428612130464
1	2460	400.468226987317	0.428612130464
1	2465	401.717516801755	0.428612130464
1	2470	402.30386676466	0.428612130464
1	2475	403.660418191813	0.428612130464
1	2480	404.139400859846	0.428612130464
1	2487	404.912420918255	0.428612130464
1	2492	405.341033048719	0.606426958436
1	2495	405.769645179183	0.831705087925
1	2503	406.312706759695	0.534758016942
1	2506	406.741318890159	0.668240417345
1	2511	410.570135626529	0.428612130464
1	2518	411.062324786363	0.428612130464
1	2523	411.490936916827	0.546990003316
1	2526	411.919549047291	0.710485476683
1	2533	413.889480078518	0.428612130464
1	2536	414.318092208982	0.528193717664
1	2541	414.829191113155	0.428612130464
1	2550	415.459911450175	0.428612130464
1	2555	415.888523580639	0.62390040686
1	2560	416.317135711103	1.009049977826
1	2567	416.745747841567	1.248683920017
1	2570	417.174359972031	0.959614352659
1	2573	417.602972102495	0.884477893805
1	2576	418.031584232959	1.29678130435
1	2581	419.688223205176	0.428612130464
1	2590	420.706567793442	0.428612130464
1	2593	421.135179923906	0.621831515662
1	2596	421.56379205437	0.976984496474
1	2607	422.000808627973	0.428612130464
1	2610	422.429420758437	0.6524831502
1	2613	422.858032888901	1.06843442453
1	2616	423.286645019365	1.375960436872
1	2623	424.455383986932	0.428612130464
1	2628	424.883996117396	0.463738362126
1	2631	425.31260824786	0.850688661462
1	2636	426.320892475248	0.428612130464
1	2641	426.852903069382	0.428612130464
1	2646	427.77384589618	0.428612130464
1	2651	428.356952337369	0.428612130464
1	2658	429.12877966664	0.428612130464
1	2661	429.557391797104	0.498326261571
1	2668	430.306604503484	0.428612130464
1	2671	430.735216633948	0.780570691753
1	2676	432.76950579181	0.428612130464
1	2681	433.51618437579	0.428612130464
1	2686	434.283071121644	0.428612130464
1	2691	435.275697116541	0.428612130464
1	2698	436.43359451597	0.428612130464
1	2703	436.862206646434	0.728408936687
1	2706	437.290818776898	0.614809036489
1	2711	439.222738329407	0.428612130464
1	2718	441.069456499349	0.428612130464
1	2723	441.498068629813	0.677362585549
1	2726	441.926680760277	0.500213600703
1	2733	443.442182944017	0.428612130464
1	2736	443.870795074481	0.797074379548
1	2743	444.59257071402	0.428612130464
1	2746	445.021182844484	0.752570514199
1	2753	445.504491270295	0.428612130464
1	2756	445.933103400759	0.775819911899
1	2763	446.448308329676	0.428612130464
1	2768	446.87692046014	0.690823447686
1	2773	447.305532590604	0.763747435118
1	2776	447.734144721068	0.493850192524
1	2787	448.163671678612	0.428612130464
1	2790	448.592283809076	0.734025036452
1	2795	449.02089593954	1.050946844796
1	2798	449.449508070004	1.305512028078
1	2803	449.878120200468	1.121040644689
1	2810	450.306732330932	0.739898020499
1	2813	450.735344461396	0.576993058231
1	2818	451.16395659186	0.883024233805
1	2821	451.592568722324	0.65666063406
1	2828	452.078959396458	0.428612130464
1	2831	452.507571526922	0.850324780677
1	2840	453.758773203416	0.428612130464
1	2845	454.18738533388	0.736835469704
1	2850	454.615997464344	0.921426700246
1	2856	455.159059044856	1.337598682839
1	2859	455.58767117532	1.272136260058
1	2864	456.016283305784	1.221575506646
1	2869	456.444895436248	0.618203108942
1	2876	456.873507566712	0.627213425969
1	2879	457.302119697176	0.844330193098
1	2882	457.73073182764	0.86745987039
1	2887	458.201846097783	0.428612130464
1	2892	459.002712083327	0.428612130464
1	2899	460.075148736728	0.428612130464
1	2904	460.503760867192	0.853752998094
1	2907	460.932372997656	0.454515076599
1	2914	462.440149537058	0.428612130464
1	2919	462.868761667522	0.842835486882
1	2922	463.297373797986	0.82080223232
1	2929	464.830289422959	0.428612130464
1	2932	465.258901553423	0.698964922686
1	2937	465.80668504723	0.428612130464
1	2942	466.38430906713	0.428612130464
1	2947	467.669077929447	0.428612130464
1	2952	469.270751910863	0.428612130464
1	2959	471.156508912264	0.428612130464
1	2964	471.585121042728	0.720262496821
1	2967	472.013733173192	0.643934663506
1	2974	473.796534488823	0.428612130464
1	2977	474.225146619287	0.669655711774
1	2982	476.232954788186	0.428612130464
1	2987	476.871360976266	0.428612130464
1	2992	477.869043698018	0.428612130464
1	2999	482.915802051823	0.428612130464
1	3002	483.344414182287	0.79780281735
1	3007	483.941333640084	0.428612130464
1	3012	485.281954392671	0.428612130464
1	3019	485.81663075682	0.428612130464
1	3026	486.245242887284	0.476744823357
1	3029	486.673855017748	0.633887557136
1	3034	487.102467148212	0.999361681489
1	3037	487.531079278676	0.547674736403
1	3044	488.340422760133	0.428612130464
1	3049	488.769034890597	0.587129181321
1	3054	489.197647021061	0.496668437836
1	3059	489.626259151525	0.535459945586
1	3062	490.054871281989	0.521602747304
1	3067	490.755530850269	0.428612130464
1	3074	493.080180787749	0.428612130464
1	3079	493.508792918213	0.450351034836
1	3082	493.937405048677	0.833604207478
1	3087	494.706581442581	0.428612130464
1	3094	495.486391416818	0.428612130464
1	3099	495.915003547282	0.593781438961
1	3102	496.343615677746	0.469403461582
1	3107	499.43991532565	0.428612130464
1	3116	500.48904653145	0.428612130464
1	3119	500.917658661914	0.817617603517
1	3122	501.346270792378	1.222979771504
1	3127	503.351909274477	0.428612130464
1	3132	503.839744123307	0.428612130464
1	3137	505.291124173873	0.428612130464
1	3142	506.09103835657	0.428612130464
1	3151	507.052642415252	0.428612130464
1	3154	507.481254545716	0.701329054288
1	3157	507.90986667618	1.018648683573
1	3162	508.491891666162	0.428612130464
1	3167	509.466033142463	0.428612130464
1	3172	510.57331976457	0.428612130464
1	3181	511.016403864132	0.428612130464
1	3184	511.445015994596	0.671226108865
1	3187	511.87362812506	0.97131225668
1	3192	513.295758916219	0.428612130464
1	3197	514.775777329307	0.428612130464
1	3203	515.361560738343	0.428612130464
1	3208	518.213774270579	0.428612130464
1	3213	519.250462334015	0.428612130464
1	3222	521.106454226014	0.428612130464
1	3225	521.535066356478	0.831455167175
1	3228	521.963678486942	1.035573271553
1	3235	522.94893267886	0.428612130464
1	3238	523.377544809324	0.694084975127
1	3243	524.288645411322	0.428612130464
1	3252	525.202628349378	0.428612130464
1	3257	525.631240479842	0.620895934311
1	3260	526.059852610306	1.002245817171
1	3263	526.48846474077	1.110995224065
1	3270	528.614075446186	0.428612130464
1	3273	529.04268757665	0.502721729002
1	3278	530.453708069	0.428612130464
1	3285	531.602090690653	0.428612130464
1	3288	532.030702821117	0.618846399758
1	3293	534.028696249077	0.428612130464
1	3300	535.566779018324	0.428612130464
1	3303	535.995391148788	0.68819491705
1	3308	536.929206425795	0.428612130464
1	3313	537.995691171149	0.428612130464
1	3320	539.162517119138	0.428612130464
1	3323	539.591129249602	0.507479204682
1	3328	540.203899970362	0.428612130464
1	3335	541.108445959831	0.428612130464
1	3338	541.537058090295	0.638542424219
1	3343	543.455470057487	0.428612130464
1	3348	544.029868625554	0.428612130464
1	3355	544.672692601701	0.428612130464
1	3358	545.101304732165	0.846860167048
1	3363	545.700972155564	0.428612130464
1	3368	547.195219477053	0.428612130464
1	3373	547.880716313996	0.428612130464
1	3380	548.420108607056	0.428612130464
1	3389	548.84872073752	0.684903546805
1	3392	549.277332867984	0.657637984562
1	3399	549.705944998448	1.067462075801
1	3402	550.134557128912	1.427403635569
1	3409	550.563169259376	1.241575271049
1	3413	550.99178138984	0.736573515906
1	3416	551.420393520304	0.98057696625
1	3421	552.293152644003	0.428612130464
1	3426	554.566248335302	0.428612130464
1	3433	559.297472682022	0.428612130464
1	3436	559.726084812486	0.803760337328
1	3441	560.9371350475	0.428612130464
1	3446	561.617008684123	0.428612130464
1	3451	562.866397345887	0.428612130464
1	3458	563.383947298984	0.428612130464
1	3465	563.812559429448	0.461738522205
1	3468	564.241171559912	0.82831218027
1	3471	564.669783690376	1.1228635987
1	3476	566.061630119749	0.428612130464
1	3481	567.63529649128	0.428612130464
1	3488	568.422989888847	0.428612130464
1	3493	568.851602019311	0.847661254363
1	3498	569.280214149775	0.527331256667
1	3501	569.708826280239	0.593369574007
1	3506	570.444082880148	0.428612130464
1	3511	572.250465160271	0.428612130464
1	3520	573.320531793945	0.428612130464
1	3527	573.749143924409	0.6075385302
1	3530	574.177756054873	0.93033042245
1	3535	574.606368185337	1.255833768018
1	3539	575.034980315801	0.811260877923
1	3546	575.763925312442	0.428612130464
1	3549	576.192537442906	0.689986187137
1	3554	576.905672793508	0.428612130464
1	3560	578.415120449692	0.428612130464
1	3565	579.127969880453	0.428612130464
1	3572	580.34762155414	0.428612130464
1	3575	580.776233684604	0.781240946323
1	3580	583.007602670475	0.428612130464
1	3585	584.512760118278	0.428612130464
1	3592	585.406235671653	0.428612130464
1	3599	585.834847802117	0.71286944398
1	3602	586.263459932581	0.842327029891
1	3605	586.692072063045	0.857738563789
1	3610	587.220725308383	0.428612130464
1	3615	588.013678362752	0.428612130464
1	3620	588.789361681811	0.428612130464
1	3625	590.316884989043	0.428612130464
1	3630	591.856289309695	0.428612130464
1	3637	593.139872511751	0.428612130464
1	3642	593.568484642215	0.806296847145
1	3645	593.997096772679	0.638760441336
1	3650	594.622687141777	0.428612130464
1	3657	596.136933388727	0.428612130464
1	3660	596.565545519191	0.536366155157
1	3665	597.836485957464	0.428612130464
1	3672	598.728096446314	0.428612130464
1	3675	599.156708576778	0.537266574892
1	3680	600.281875455044	0.428612130464
1	3685	600.71619198634	0.428612130464
1	3690	601.809863760673	0.428612130464
1	3695	603.747921939427	0.428612130464
1	3700	604.933070174726	0.428612130464
1	3707	606.037981890136	0.428612130464
1	3712	606.4665940206	0.642006958834
1	3715	606.895206151064	0.504513452807
1	3720	607.325272890093	0.428612130464
1	3725	608.451991248379	0.428612130464
1	3732	609.817520222779	0.428612130464
1	3741	610.246132353243	0.594315274651
1	3746	610.674744483707	0.516664343807
1	3749	611.103356614171	0.883625755393
1	3756	611.531968744635	1.28797108985
1	3759	611.960580875099	1.375960594168
1	3762	612.389193005563	0.931259684374
1	3765	612.817805136027	1.356925105209
1	3770	613.263280123536	0.428612130464
1	3781	614.085901044623	0.428612130464
1	3786	614.514513175087	0.565449623537
1	3789	614.943125305551	0.946962634633
1	3792	615.371737436015	1.35300229478
1	3795	615.800349566479	1.378001539549
1	3800	616.610735595007	0.428612130464
1	3805	618.262393454581	0.428612130464
1	3810	618.716654270455	0.428612130464
1	3815	619.323902171587	0.428612130464
1	3824	620.060299351165	0.428612130464
1	3827	620.488911481629	0.63254104763
1	3832	620.917523612093	0.931455090962
1	3837	621.346135742557	0.824943953387
1	3842	621.774747873021	0.726056136964
1	3847	622.203360003485	0.513489185124
1	3850	622.631972133949	0.66020522819
1	3855	623.147596679029	0.428612130464
1	3860	624.537265350584	0.428612130464
1	3865	626.21759757742	0.428612130464
1	3872	628.236432556995	0.428612130464
1	3877	628.665044687459	0.839545811048
1	3880	629.093656817923	0.727061907804
1	3885	630.469911837416	0.428612130464
1	3892	632.138782226047	0.428612130464
1	3895	632.567394356511	0.641072622821
1	3902	635.076571230313	0.428612130464
1	3905	635.505183360777	0.511137570934
1	3913	636.296987217159	0.428612130464
1	3916	636.725599347623	0.60660450921
1	3921	637.85357636633	0.428612130464
1	3926	639.361051147506	0.428612130464
1	3931	640.28693489645	0.428612130464
1	3938	641.463451297357	0.428612130464
1	3941	641.892063427821	0.833384393212
1	3946	643.471160202083	0.428612130464
1	3951	644.380677728602	0.428612130464
1	3958	645.308047601266	0.428612130464
1	3961	645.73665973173	0.434151347784
1	3968	647.035945171758	0.428612130464
1	3971	647.464557302222	0.539004819967
1	3978	648.042318161489	0.428612130464
1	3981	648.470930291953	0.792145215904
1	3988	649.143253500518	0.428612130464
1	3991	649.571865630982	0.486251520153
1	3996	651.51438844602	0.428612130464
1	4001	655.223032219794	0.428612130464
1	4006	656.018691625392	0.428612130464
1	4011	657.016577028004	0.428612130464
1	4016	657.734177788875	0.428612130464
1	4021	659.560471379769	0.428612130464
1	4030	660.171891270801	0.428612130464
1	4033	660.600503401265	0.751650870382
1	4036	661.029115531729	1.081975016306
1	4043	662.055036040367	0.428612130464
1	4050	662.483648170831	0.747603237027
1	4055	662.912260301295	0.852129200983
1	4060	663.340872431759	1.245829915435
1	4063	663.769484562223	1.254901922081
1	4066	664.198096692687	1.246772317722
1	4071	664.79400210999	0.428612130464
1	4078	667.161432688801	0.428612130464
1	4081	667.590044819265	0.523104922823
1	4086	668.62513986032	0.428612130464
1	4091	669.66703286536	0.428612130464
1	4098	670.442296174123	0.428612130464
1	4101	670.870908304587	0.782727476797
1	4106	671.581702258562	0.428612130464
1	4113	672.948356096035	0.428612130464
1	4118	673.376968226499	0.568561064866
1	4121	673.805580356963	0.463838169097
1	4126	675.164049284258	0.428612130464
1	4133	675.642934227025	0.428612130464
1	4136	676.071546357489	0.680370738316
1	4141	676.652905501948	0.428612130464
1	4146	678.740479072175	0.428612130464
1	4151	679.649629555079	0.428612130464
1	4158	680.334723120356	0.428612130464
1	4163	680.76333525082	0.85677139153
1	4166	681.191947381284	0.5794319783
1	4173	683.858021024737	0.428612130464
1	4178	684.286633155201	0.696439057105
1	4181	684.715245285665	0.704800666688
1	4186	685.789538298074	0.428612130464
1	4191	686.870025631751	0.428612130464
1	4198	688.289076863772	0.428612130464
1	4201	688.717688994236	0.679698638168
1	4208	690.050453716123	0.428612130464
1	4211	690.479065846587	0.623421883365
1	4220	691.178077602288	0.428612130464
1	4225	691.606689732752	0.5949522547
1	4230	692.035301863216	0.974789245676
1	4235	692.46391399368	1.188366494058
1	4242	692.892526124144	0.917278500361
1	4245	693.321138254608	1.192434762442
1	4248	693.749750385072	0.959166639498
1	4253	694.178362515536	1.315968081788
1	4258	694.606974646	0.538086018778
1	4262	695.150036226512	0.903823547705
1	4271	695.694808691376	0.428612130464
1	4274	696.12342082184	0.682554566595
1	4277	696.552032952304	0.88349297816
1	4282	697.407365974348	0.428612130464
1	4287	698.614479356206	0.428612130464
1	4294	699.400370605968	0.428612130464
1	4297	699.828982736432	0.58186872758
1	4302	702.02481039822	0.428612130464
1	4309	702.953455748879	0.428612130464
1	4314	703.382067879343	0.48276965466
1	4317	703.810680009807	0.528970743594
1	4322	704.809509868288	0.428612130464
1	4327	705.741223349886	0.428612130464
1	4336	707.357542838086	0.428612130464
1	4339	707.78615496855	0.766103208105
1	4342	708.214767099014	1.108202415465
1	4347	710.612626078415	0.428612130464
1	4354	711.142955646688	0.428612130464
1	4359	711.571567777152	0.48693209345
1	4362	712.000179907616	0.490803268486
1	4369	712.652689929446	0.428612130464
1	4372	713.08130205991	0.660134724146
1	4377	713.918113307222	0.428612130464
1	4386	716.693292193274	0.428612130464
1	4391	717.121904323738	0.675160146073
1	4396	717.550516454202	0.865925062876
1	4399	717.979128584666	1.158725689827
1	4402	718.40774071513	0.972471285532
1	4409	718.889800671207	0.428612130464
1	4412	719.318412801671	0.6688754916
1	4419	721.425230918302	0.428612130464
1	4424	721.853843048766	0.539189111647
1	4427	722.28245517923	0.668343417689
1	4432	723.538406197175	0.428612130464
1	4439	724.558817342525	0.428612130464
1	4442	724.987429472989	0.439662869394
1	4447	727.619897921398	0.428612130464
1	4454	728.185638746269	0.428612130464
1	4463	728.614250876733	0.493507389592
1	4470	729.042863007197	0.734383409371
1	4473	729.471475137661	0.953774034441
1	4476	729.900087268125	1.313122673044
1	4482	730.328699398589	1.371988370907
1	4485	730.757311529053	0.850253890246
1	4494	731.504868526075	0.428612130464
1	4497	731.933480656539	0.681742479933
1	4502	732.362092787003	0.994561735348
1	4505	732.790704917467	0.665882332135
1	4510	734.771382712407	0.428612130464
1	4515	737.188498210303	0.428612130464
1	4520	738.283228362832	0.428612130464
1	4525	739.897183849785	0.428612130464
1	4530	740.795413157442	0.428612130464
1	4535	741.832848111432	0.428612130464
1	4540	742.433972079633	0.428612130464
1	4545	742.975109084522	0.428612130464
1	4550	743.53181709904	0.428612130464
1	4557	745.368077430043	0.428612130464
1	4562	745.796689560507	0.832529818143
1	4567	746.225301690971	0.540227122494
1	4570	746.653913821435	0.668026085445
1	4577	747.173074398532	0.428612130464
1	4580	747.601686528996	0.629128389231
1	4585	748.235414476587	0.428612130464
1	4592	749.405806108531	0.428612130464
1	4595	749.834418238995	0.582710768092
1	4600	750.990719408481	0.428612130464
1	4611	751.45959335841	0.428612130464
1	4620	751.888205488874	0.841604987945
1	4626	752.431267069386	1.114748442823
1	4632	752.85987919985	1.272272433315
1	4639	753.288491330314	1.118832398483
1	4642	753.717103460778	1.219801020627
1	4645	754.145715591242	1.120505494303
1	4650	758.132231232846	0.428612130464
1	4655	759.584765483151	0.428612130464
1	4662	760.86415732254	0.428612130464
1	4665	761.292769453004	0.536517629096
1	4672	761.788098254754	0.428612130464
1	4677	762.216710385218	0.611702388205
1	4680	762.645322515682	0.848692473249
1	4685	763.442573304058	0.428612130464
1	4692	764.245904443092	0.428612130464
1	4697	764.674516573556	0.455159762503
1	4700	765.10312870402	0.580682347356
1	4705	765.78489766826	0.428612130464
1	4710	766.453835343501	0.428612130464
1	4715	767.224544409386	0.428612130464
1	4722	768.307539431328	0.428612130464
1	4725	768.736151561792	0.740792088001
1	4730	770.112867345727	0.428612130464
1	4735	772.30539718893	0.428612130464
1	4744	773.098454390475	0.428612130464
1	4749	773.527066520939	0.814994980421
1	4752	773.955678651403	1.041963063913
1	4755	774.384290781867	0.951170871534
1	4762	776.150525597678	0.428612130464
1	4767	776.579137728142	0.652685243218
1	4772	777.007749858606	0.584645035263
1	4775	777.43636198907	0.717048259716
1	4780	778.280103491898	0.428612130464
1	4785	779.108146598831	0.428612130464
1	4792	779.935902064608	0.428612130464
1	4795	780.364514195072	0.766601789483
1	4800	781.555169808432	0.428612130464
1	4807	782.231379342777	0.428612130464
1	4810	782.659991473241	0.794423466553
1	4817	783.098647712434	0.428612130464
1	4822	783.527259842898	0.602945964143
1	4827	783.955871973362	0.631339728384
1	4830	784.384484103826	0.767066296598
1	4837	785.185974773168	0.428612130464
1	4842	785.614586903632	0.606671574727
1	4845	786.043199034096	0.586121840063
1	4850	787.111640070699	0.428612130464
1	4855	788.657411160802	0.428612130464
1	4860	789.309586162347	0.428612130464
1	4867	790.462786780068	0.428612130464
1	4872	790.891398910532	0.666239940001
1	4875	791.320011040996	0.769657918968
1	4880	792.200147515934	0.428612130464
1	4885	792.823495944243	0.428612130464
1	4894	795.020161480154	0.428612130464
1	4897	795.448773610618	0.701439068001
1	4900	795.877385741082	0.991984397655
1	4905	799.811170756859	0.428612130464
1	4912	802.172473796764	0.428612130464
1	4917	802.601085927228	0.781068532176
1	4920	803.029698057692	0.574540834914
1	4927	806.467480700558	0.428612130464
1	4932	806.896092831022	0.636318794056
1	4937	807.324704961486	0.527827093091
1	4944	807.75331709195	0.524537567467
1	4951	808.181929222414	0.830143465785
1	4956	808.610541352878	0.870243689803
1	4961	809.039153483342	1.175237972476
1	4965	809.467765613806	0.905991024067
1	4970	809.89637774427	1.221072949203
1	4975	810.324989874734	0.606742213009
1	4981	810.868051455246	0.739763085737
1	4986	811.29666358571	0.900447575068
1	4991	811.725275716174	0.501247839216
1	4994	812.153887846638	0.74008954958
1	4999	813.395160339564	0.428612130464
1	5006	814.473005453082	0.428612130464
1	5013	814.901617583546	0.67314891138
1	5016	815.33022971401	0.761747128321
1	5019	815.758841844474	1.092424893772
1	5024	817.742886424586	0.428612130464
1	5029	818.920947672422	0.428612130464
1	5034	821.448579991025	0.428612130464
1	5039	822.043730718543	0.428612130464
1	5048	823.623151265598	0.428612130464
1	5051	824.051763396062	0.635048949764
1	5054	824.480375526526	0.887728482313
1	5059	826.784640793362	0.428612130464
1	5064	827.254759216456	0.428612130464
1	5069	827.716409467135	0.428612130464
1	5074	829.096751054619	0.428612130464
1	5079	831.270478156932	0.428612130464
1	5088	831.830973972354	0.428612130464
1	5091	832.259586102818	0.606755218346
1	5094	832.688198233282	0.992942241835
1	5105	833.677642821517	0.428612130464
1	5110	834.106254951981	0.822151579018
1	5113	834.534867082445	1.184431147606
1	5116	834.963479212909	1.367682826292
1	5121	835.392091343373	1.385743436092
1	5124	835.820703473837	0.76463674223
1	5129	837.748593441086	0.428612130464
1	5134	839.263563953206	0.428612130464
1	5141	843.445763088762	0.428612130464
1	5146	843.874375219226	0.430384767616
1	5151	844.30298734969	0.668682053885
1	5156	844.731599480154	0.481118074941
1	5161	845.160211610618	0.691264191614
1	5168	845.588823741082	0.720928479396
1	5171	846.017435871546	0.754792037219
1	5176	846.44604800201	1.160187938929
1	5181	846.874660132474	0.683963437314
1	5184	847.303272262938	0.798379619188
1	5189	848.699169767561	0.428612130464
1	5196	850.700560378869	0.428612130464
1	5201	851.129172509333	0.554709279749
1	5204	851.557784639797	0.459173239178
1	5211	854.861722936916	0.428612130464
1	5214	855.29033506738	0.755764514436
1	5223	855.901512022965	0.428612130464
1	5226	856.330124153429	0.733917525364
1	5229	856.758736283893	1.152176938699
1	5236	858.845797925048	0.428612130464
1	5239	859.274410055512	0.759986759379
1	5244	861.021238170308	0.428612130464
1	5251	862.884948046101	0.428612130464
1	5256	863.313560176565	0.846366222372
1	5261	863.742172307029	0.546604057803
1	5264	864.170784437493	0.744519486842
1	5269	865.314882620101	0.428612130464
1	5274	866.910974224732	0.428612130464
1	5279	867.340149571188	0.428612130464
1	5290	868.609005998165	0.428612130464
1	5293	869.037618128629	0.794427536774
1	5298	869.466230259093	1.105675298437
1	5301	869.894842389557	1.382236929388
1	5304	870.323454520021	1.156623103657
1	5309	872.172655188245	0.428612130464
1	5314	874.322112005154	0.428612130464
1	5319	874.930592222313	0.428612130464
1	5324	877.490106767069	0.428612130464
1	5334	881.203285409905	0.428612130464
1	5339	881.631897540369	0.842269147855
1	5342	882.060509670833	1.252589747129
1	5345	882.489121801297	0.914102395881
1	5350	883.728770705999	0.428612130464
1	5359	884.167706544901	0.428612130464
1	5362	884.596318675365	0.794129626981
1	5365	885.024930805829	1.126149225609
1	5370	885.58545633903	0.428612130464
1	5377	887.816525924449	0.428612130464
1	5384	888.245138054913	0.438923039278
1	5389	888.673750185377	0.83696064335
1	5396	889.102362315841	0.991989264166
1	5399	889.530974446305	1.06119654819
1	5404	889.959586576769	0.952265817374
1	5409	890.388198707233	1.33700755601
1	5412	890.816810837697	1.111237904724
1	5417	891.245422968161	0.903786455802
1	5420	891.674035098625	0.69448603536
1	5425	895.140449127729	0.428612130464
1	5430	895.72230748704	0.428612130464
1	5437	897.272507602284	0.428612130464
1	5440	897.701119732748	0.790280522198
1	5447	898.366069131002	0.428612130464
1	5450	898.794681261466	0.616296480619
1	5457	899.475452283194	0.428612130464
1	5468	899.904064413658	0.759237349336
1	5473	900.332676544122	0.660496222922
1	5476	900.761288674586	0.952246733637
1	5479	901.18990080505	1.320422951023
1	5486	903.778780455769	0.428612130464
1	5491	905.42190933127	0.428612130464
1	5496	906.148470728422	0.428612130464
1	5503	907.470880819043	0.428612130464
1	5506	907.899492949507	0.451964789342
1	5511	910.333134775782	0.428612130464
1	5518	911.226154493958	0.428612130464
1	5521	911.654766624422	0.648814258051
1	5530	912.674423090113	0.428612130464
1	5535	913.103035220577	0.855461556463
1	5540	913.531647351041	0.873567847864
1	5543	913.960259481505	1.259733470911
1	5546	914.388871611969	1.092185798615
1	5551	916.213425943623	0.428612130464
1	5556	917.3093996908	0.428612130464
1	5563	917.773850835169	0.428612130464
1	5568	918.202462965633	0.839718231717
1	5571	918.631075096097	0.76044661973
1	5576	922.054406583781	0.428612130464
1	5583	922.611094531367	0.428612130464
1	5586	923.039706661831	0.815641672517
1	5591	924.409325044143	0.428612130464
1	5596	925.208375628405	0.428612130464
1	5605	926.47523672548	0.428612130464
1	5608	926.903848855944	0.710931627463
1	5611	927.332460986408	1.035249972864
1	5620	928.896736992727	0.428612130464
1	5623	929.325349123191	0.782338771662
1	5626	929.753961253655	0.970414292348
1	5631	931.359151117018	0.428612130464
1	5638	932.324246635603	0.428612130464
1	5645	932.752858766067	0.478357968164
1	5650	933.181470896531	0.666790699121
1	5655	933.610083026995	0.976041446095
1	5658	934.038695157459	1.213803151709
1	5663	934.467307287923	1.029698468388
1	5668	934.895919418387	0.710649402949
1	5673	935.324531548851	0.576414689009
1	5676	935.753143679315	0.604465561164
1	5683	936.288133419829	0.428612130464
1	5687	936.831195000341	0.800715395131
1	5692	937.762241634729	0.428612130464
1	5701	938.383608945645	0.428612130464
1	5706	938.812221076109	0.613016475518
1	5709	939.240833206573	0.893419218688
1	5712	939.669445337037	1.179410949765
1	5717	942.068978414034	0.428612130464
1	5726	943.174316865508	0.428612130464
1	5731	943.602928995972	0.663285640019
1	5736	944.031541126436	0.903209102047
1	5741	944.4601532569	0.915582974074
1	5744	944.888765387364	1.038485388351
1	5747	945.317377517828	0.914239126538
1	5756	947.234523551602	0.428612130464
1	5759	947.663135682066	0.652210089065
1	5762	948.09174781253	0.95485181554
1	5767	948.633916861543	0.428612130464
1	5772	949.073373378805	0.428612130464
1	5781	949.762135368895	0.428612130464
1	5784	950.190747499359	0.653965684568
1	5789	950.619359629823	0.994779141376
1	5794	951.047971760287	0.435500466081
1	5799	951.476583890751	0.84131488759
1	5806	951.905196021215	0.748418921003
1	5809	952.333808151679	0.839175643868
1	5814	952.762420282143	0.954733015744
1	5817	953.191032412607	0.763838654894
1	5822	954.922625230461	0.428612130464
1	5827	955.635807055049	0.428612130464
1	5834	957.004947180706	0.428612130464
1	5839	957.43355931117	0.564963155979
1	5842	957.862171441634	0.658633366317
1	5847	958.542446952806	0.428612130464
1	5852	960.679233152091	0.428612130464
1	5857	961.444483269526	0.428612130464
1	5862	963.012098886442	0.428612130464
1	5867	966.16734502265	0.428612130464
1	5872	968.028865466614	0.428612130464
1	5879	968.773561747617	0.428612130464
1	5882	969.202173878081	0.629628232599
1	5889	970.648289996446	0.428612130464
1	5892	971.07690212691	0.489726640519
1	5903	972.080763804085	0.428612130464
1	5908	972.509375934549	0.814016059692
1	5913	972.937988065013	0.967842097762
1	5920	973.366600195477	1.348629590052
1	5926	973.795212325941	1.003263377859
1	5929	974.223824456405	1.147531404996
1	5932	974.652436586869	1.32391164436
1	5940	975.09221092066	0.428612130464
1	5945	975.520823051124	0.567441051708
1	5950	975.949435181588	0.446467076076
1	5955	976.378047312052	0.550438260765
1	5958	976.806659442516	0.583299115186
1	5965	978.332522187535	0.428612130464
1	5968	978.761134317999	0.74692133274
1	5973	979.992283904114	0.428612130464
1	5980	981.605106141576	0.428612130464
[...]
8	1239	214.452941192614	0.697634275071
8	1244	214.881553323078	0.040448171995
8	1254	217.176720219208	0.133735427829
8	1279	223.248143981115	0.144979352688
8	1284	223.676756111579	0.262257308185
8	1289	224.105368242043	0.103682412865
8	1299	225.242252721755	0.162205925528
8	1329	230.315926526875	0.158546472328
8	1334	230.744538657339	0.203929375289
8	1391	246.44888620322	0.288663395483
8	1394	246.877498333684	0.577897801696
8	1404	249.735315357841	0.209630013497
8	1409	250.163927488305	0.003402052982
8	1427	254.125252403112	0.384154910909
8	1430	254.553864533576	0.725045909269
8	1435	254.98247666404	0.024275731409
8	1450	257.181010183017	0.264084643674
8	1460	258.230408607347	0.054646838504
8	1465	258.659020737811	0.404177926346
8	1482	260.936681317332	0.354620429294
8	1485	261.365293447796	0.493696547452
8	1490	261.79390557826	0.120782050153
8	1495	262.222517708724	0.252904933392
8	1502	262.651129839188	0.231662119258
8	1505	263.079741969652	0.637266777084
8	1515	264.542613652809	0.365487727934
8	1525	266.425435523832	0.151775593947
8	1535	268.032567298898	0.411449526411
8	1550	272.982750202469	0.343368115992
8	1570	276.364184382577	0.405682850283
8	1590	279.451562810958	0.392665465639
8	1597	279.880174941422	0.35019368463
8	1600	280.308787071886	0.481172980127
8	1605	280.73739920235	0.095804215457
8	1610	281.166011332814	0.269824005282
8	1617	281.594623463278	0.386984341257
8	1620	282.023235593742	0.793634819124
8	1625	282.451847724206	0.282722956638
8	1632	282.88045985467	0.117631546214
8	1635	283.309071985134	0.526779243269
8	1661	285.384861625465	0.390365983425
8	1664	285.813473755929	0.703746920766
8	1669	286.242085886393	0.921339503879
8	1674	286.670698016857	1.340662368061
8	1676	286.670698016857	0.856811201042
8	1678	287.099310147321	0.489157720457
8	1693	291.964496577955	0.186564396387
8	1705	293.295184384778	0.133526782588
8	1708	293.723796515242	0.518303409279
8	1720	295.314960343487	0.297270230206
8	1723	295.743572473951	0.547560261671
8	1748	300.791817752172	0.241133085044
8	1777	307.514630439767	0.492018919125
8	1785	307.943242570231	0.724974499588
8	1788	308.371854700695	0.833827558915
8	1793	308.800466831159	1.109871410644
8	1795	308.800466831159	0.973386825713
8	1797	309.229078961623	0.822690991109
8	1812	311.148951035264	0.185035341062
8	1817	311.577563165728	0.316148625407
8	1829	312.575679110904	0.230078790678
8	1834	313.004291241368	0.658633440841
8	1839	313.432903371832	0.582269131624
8	1842	313.861515502296	0.80455755655
8	1862	315.970804147562	0.264327060452
8	1877	318.384488487902	0.382938829696
8	1884	318.813100618366	0.38584021073
8	1887	319.24171274883	0.650697214656
8	1898	319.670324879294	0.367853205501
8	1903	320.098937009758	0.796185525125
8	1906	320.527549140222	1.054246553364
8	1908	320.527549140222	0.981917159294
8	1912	320.956161270686	1.08405161669
8	1914	320.956161270686	0.155727489991
8	1923	322.767517033658	0.037663303704
8	1933	324.325775452346	0.420411390214
8	1938	324.75438758281	0.318891509302
8	1943	325.182999713274	0.062414728857
8	1950	325.611611843738	0.409960975368
8	1953	326.040223974202	0.774673642146
8	1968	327.651980831573	0.368228739491
8	1978	328.547225403632	0.364406693
8	1988	329.972696133666	0.294672650458
8	1995	330.40130826413	0.275487894068
8	2000	330.829920394594	0.549081644439
8	2003	331.258532525058	0.667299352115
8	2008	331.687144655522	0.143153140573
8	2023	333.744604421328	0.1409514599
8	2033	335.52143837664	0.251894479583
8	2055	338.329065225686	0.135497169476
8	2058	338.75767735615	0.503082403976
8	2063	339.186289486614	0.026780710433
8	2070	339.614901617078	0.251094135158
8	2073	340.043513747542	0.554790964694
8	2083	344.002342145679	0.099897463884
8	2088	344.430954276143	0.305002731425
8	2135	355.595150826394	0.48761622607
8	2139	356.023762956858	0.003337432298
8	2144	356.452375087322	0.277726656799
8	2149	356.880987217786	0.367729068155
8	2174	361.474274947602	0.212781089448
8	2179	361.902887078066	0.369572874508
8	2189	364.508246260011	0.284800358752
8	2194	364.936858390475	0.314141735011
8	2199	365.365470520939	0.191565579991
8	2204	365.794082651403	0.073047416376
8	2211	366.222694781867	0.264001790995
8	2216	366.651306912331	0.517387150367
8	2223	367.079919042795	0.583090379123
8	2228	367.508531173259	0.810780919532
8	2235	367.937143303723	1.170709172768
8	2237	367.937143303723	0.446432778045
8	2239	368.365755434187	0.781882256527
8	2242	368.794367564651	1.088931559248
8	2265	372.991871875844	0.204275553748
8	2270	373.420484006308	0.242780946702
8	2285	376.7653955572	0.378432379087
8	2297	378.932973838057	0.048351659454
8	2300	379.361585968521	0.439735791446
8	2307	379.790198098985	0.402232603927
8	2314	380.218810229449	0.628744922871
8	2317	380.647422359913	0.629629176203
8	2320	381.076034490377	0.930051515805
8	2350	386.204336515853	0.294232523493
8	2360	387.557215343386	0.269716901059
8	2367	387.98582747385	0.387484134044
8	2374	388.414439604314	0.432257081117
8	2379	388.843051734778	0.851220342148
8	2386	389.271663865242	1.00451641994
8	2389	389.700275995706	0.9202477021
8	2392	390.12888812617	1.07255075203
8	2394	390.12888812617	1.039083597218
8	2401	391.802089035745	0.083632112093
8	2408	392.230701166209	0.325434209896
8	2413	392.659313296673	0.434315391739
8	2418	393.087925427137	0.819298856716
8	2423	393.516537557601	0.678349861132
8	2426	393.945149688065	0.626288918397
8	2486	404.912420918255	0.177814827972
8	2491	405.341033048719	0.403092957461
8	2498	405.884094629231	0.106145886478
8	2502	406.312706759695	0.239628286881
8	2517	411.062324786363	0.118377872852
8	2522	411.490936916827	0.281873346219
8	2532	413.889480078518	0.0995815872
8	2549	415.459911450175	0.195288276396
8	2554	415.888523580639	0.580437847362
8	2559	416.317135711103	0.820071789553
8	2566	416.745747841567	0.531002222195
8	2569	417.174359972031	0.455865763341
8	2572	417.602972102495	0.868169173886
8	2589	420.706567793442	0.193219385198
8	2592	421.135179923906	0.54837236601
8	2606	422.000808627973	0.223871019736
8	2609	422.429420758437	0.639822294066
8	2612	422.858032888901	0.947348306408
8	2622	424.455383986932	0.035126231662
8	2627	424.883996117396	0.422076530998
8	2657	429.12877966664	0.069714131107
8	2667	430.306604503484	0.351958561289
8	2697	436.43359451597	0.299796806223
8	2702	436.862206646434	0.186196906025
8	2717	441.069456499349	0.248750455085
8	2722	441.498068629813	0.071601470239
8	2732	443.442182944017	0.368462249084
8	2742	444.59257071402	0.323958383735
8	2752	445.504491270295	0.347207781435
8	2762	446.448308329676	0.262211317222
8	2767	446.87692046014	0.335135304654
8	2772	447.305532590604	0.06523806206
8	2786	448.163671678612	0.305412905988
8	2789	448.592283809076	0.622334714332
8	2794	449.02089593954	0.876899897614
8	2797	449.449508070004	0.692428514225
8	2802	449.878120200468	0.311285890035
8	2809	450.306732330932	0.148380927767
8	2812	450.735344461396	0.454412103341
8	2817	451.16395659186	0.228048503596
8	2827	452.078959396458	0.421712650213
8	2839	453.758773203416	0.30822333924
8	2844	454.18738533388	0.492814569782
8	2851	454.730446914392	0.908986552375
8	2855	455.159059044856	0.843524129594
8	2858	455.58767117532	0.792963376182
8	2863	456.016283305784	0.189590978478
8	2868	456.444895436248	0.198601295505
8	2875	456.873507566712	0.415718062634
8	2878	457.302119697176	0.438847739926
8	2898	460.075148736728	0.42514086763
8	2903	460.503760867192	0.025902946135
8	2913	462.440149537058	0.414223356418
8	2918	462.868761667522	0.392190101856
8	2928	464.830289422959	0.270352792222
8	2958	471.156508912264	0.291650366357
8	2963	471.585121042728	0.215322533042
8	2973	473.796534488823	0.24104358131
8	2998	482.915802051823	0.369190686886
8	3018	485.81663075682	0.048132692893
8	3025	486.245242887284	0.205275426672
8	3028	486.673855017748	0.570749551025
8	3033	487.102467148212	0.119062605939
8	3043	488.340422760133	0.158517050857
8	3048	488.769034890597	0.068056307372
8	3053	489.197647021061	0.106847815122
8	3058	489.626259151525	0.09299061684
8	3073	493.080180787749	0.021738904372
8	3078	493.508792918213	0.404992077014
8	3093	495.486391416818	0.165169308497
8	3098	495.915003547282	0.040791331118
8	3115	500.48904653145	0.389005473053
8	3118	500.917658661914	0.79436764104
8	3150	507.052642415252	0.272716923824
8	3153	507.481254545716	0.590036553109
8	3180	511.016403864132	0.242613978401
8	3183	511.445015994596	0.542700126216
8	3221	521.106454226014	0.402843036711
8	3224	521.535066356478	0.606961141089
8	3234	522.94893267886	0.265472844663
8	3251	525.202628349378	0.192283803847
8	3256	525.631240479842	0.573633686707
8	3259	526.059852610306	0.682383093601
8	3269	528.614075446186	0.074109598538
8	3284	531.602090690653	0.190234269294
8	3299	535.566779018324	0.259582786586
8	3319	539.162517119138	0.078867074218
8	3334	541.108445959831	0.209930293755
8	3354	544.672692601701	0.418248036584
8	3379	548.420108607056	0.256291416341
8	3388	548.84872073752	0.229025854098
8	3391	549.277332867984	0.638849945337
8	3398	549.705944998448	0.998791505105
8	3401	550.134557128912	0.812963140585
8	3408	550.563169259376	1.183260870621
8	3410	550.563169259376	0.307961385442
8	3412	550.99178138984	0.551964835786
8	3432	559.297472682022	0.375148206864
8	3457	563.383947298984	0.033126391741
8	3464	563.812559429448	0.399700049806
8	3467	564.241171559912	0.694251468236
8	3487	568.422989888847	0.419049123899
8	3492	568.851602019311	0.098719126203
8	3497	569.280214149775	0.164757443543
8	3519	573.320531793945	0.178926399736
8	3526	573.749143924409	0.501718291986
8	3529	574.177756054873	0.827221637554
8	3534	574.606368185337	1.171773522223
8	3536	574.606368185337	0.382648747459
8	3545	575.763925312442	0.261374056673
8	3571	580.34762155414	0.352628815859
8	3591	585.406235671653	0.284257313516
8	3598	585.834847802117	0.413714899427
8	3601	586.263459932581	0.429126433325
8	3636	593.139872511751	0.377684716681
8	3641	593.568484642215	0.210148310872
8	3656	596.136933388727	0.107754024693
8	3671	598.728096446314	0.108654444428
8	3706	606.037981890136	0.21339482837
8	3711	606.4665940206	0.075901322343
8	3731	609.817520222779	0.165703144187
8	3740	610.246132353243	0.088052213343
8	3745	610.674744483707	0.455013624929
8	3748	611.103356614171	0.859358959386
8	3755	611.531968744635	0.947348463704
8	3758	611.960580875099	0.50264755391
8	3761	612.389193005563	0.928312974745
8	3780	614.085901044623	0.136837493073
8	3785	614.514513175087	0.518350504169
8	3788	614.943125305551	0.924390164316
8	3791	615.371737436015	0.949389409085
8	3823	620.060299351165	0.203928917166
8	3826	620.488911481629	0.502842960498
8	3831	620.917523612093	0.396331822923
8	3836	621.346135742557	0.2974440065
8	3841	621.774747873021	0.08487705466
8	3846	622.203360003485	0.231593097726
8	3871	628.236432556995	0.410933680584
8	3876	628.665044687459	0.29844977734
8	3891	632.138782226047	0.212460492357
8	3901	635.076571230313	0.08252544047
8	3912	636.296987217159	0.177992378746
8	3937	641.463451297357	0.404772262748
8	3957	645.308047601266	0.00553921732
8	3967	647.035945171758	0.110392689503
8	3977	648.042318161489	0.36353308544
8	3987	649.143253500518	0.057639389689
8	4029	660.171891270801	0.323038739918
8	4032	660.600503401265	0.653362885842
8	4042	662.055036040367	0.318991106563
8	4049	662.483648170831	0.423517070519
8	4054	662.912260301295	0.817217784971
8	4059	663.340872431759	0.826289791617
8	4062	663.769484562223	0.818160187258
8	4077	667.161432688801	0.094492792359
8	4097	670.442296174123	0.354115346333
8	4112	672.948356096035	0.139948934402
8	4117	673.376968226499	0.035226038633
8	4132	675.642934227025	0.251758607852
8	4157	680.334723120356	0.428159261066
8	4162	680.76333525082	0.150819847836
8	4172	683.858021024737	0.267826926641
8	4177	684.286633155201	0.276188536224
8	4197	688.289076863772	0.251086507704
8	4207	690.050453716123	0.194809752901
8	4219	691.178077602288	0.166340124236
8	4224	691.606689732752	0.546177115212
8	4229	692.035301863216	0.759754363594
8	4234	692.46391399368	0.488666369897
8	4241	692.892526124144	0.763822631978
8	4244	693.321138254608	0.530554509034
8	4247	693.749750385072	0.887355951324
8	4252	694.178362515536	0.109473888314
8	4259	694.721424096048	0.475211417241
8	4270	695.694808691376	0.253942436131
8	4273	696.12342082184	0.454880847696
8	4293	699.400370605968	0.153256597116
8	4308	702.953455748879	0.054157524196
8	4313	703.382067879343	0.10035861313
8	4335	707.357542838086	0.337491077641
8	4338	707.78615496855	0.679590285001
8	4353	711.142955646688	0.058319962986
8	4358	711.571567777152	0.062191138022
8	4368	712.652689929446	0.231522593682
8	4385	716.693292193274	0.246548015609
8	4390	717.121904323738	0.437312932412
8	4395	717.550516454202	0.730113559363
8	4398	717.979128584666	0.543859155068
8	4408	718.889800671207	0.240263361136
8	4418	721.425230918302	0.110576981183
8	4423	721.853843048766	0.239731287225
8	4438	724.558817342525	0.01105073893
8	4453	728.185638746269	0.064895259128
8	4462	728.614250876733	0.305771278907
8	4469	729.042863007197	0.525161903977
8	4472	729.471475137661	0.88451054258
8	4475	729.900087268125	1.278045315863
8	4477	729.900087268125	0.943376240443
8	4481	730.328699398589	0.421641759782
8	4493	731.504868526075	0.253130349469
8	4496	731.933480656539	0.565949604884
8	4501	732.362092787003	0.237270201671
8	4556	745.368077430043	0.403917687679
8	4561	745.796689560507	0.11161499203
8	4566	746.225301690971	0.239413954981
8	4576	747.173074398532	0.200516258767
8	4591	749.405806108531	0.154098637628
8	4610	751.45959335841	0.412992857481
8	4621	752.002654938922	0.686136312359
8	4625	752.431267069386	1.077290080558
8	4627	752.431267069386	0.843660302851
8	4631	752.85987919985	1.263074788397
8	4633	752.85987919985	1.238296262563
8	4634	752.85987919985	0.690220268019
8	4638	753.288491330314	0.791188890163
8	4641	753.717103460778	0.691893363839
8	4661	760.86415732254	0.107905498632
8	4671	761.788098254754	0.183090257741
8	4676	762.216710385218	0.420080342785
8	4691	764.245904443092	0.026547632039
8	4696	764.674516573556	0.152070216892
8	4721	768.307539431328	0.312179957537
8	4743	773.098454390475	0.386382849957
8	4748	773.527066520939	0.613350933449
8	4751	773.955678651403	0.52255874107
8	4761	776.150525597678	0.224073112754
8	4766	776.579137728142	0.156032904799
8	4771	777.007749858606	0.288436129252
8	4791	779.935902064608	0.337989659019
8	4806	782.231379342777	0.365811336089
8	4816	783.098647712434	0.174333833679
8	4821	783.527259842898	0.20272759792
8	4826	783.955871973362	0.338454166134
8	4836	785.185974773168	0.178059444263
8	4841	785.614586903632	0.157509709599
8	4866	790.462786780068	0.237627809537
8	4871	790.891398910532	0.341045788504
8	4893	795.020161480154	0.272826937537
8	4896	795.448773610618	0.563372267191
8	4911	802.172473796764	0.352456401712
8	4916	802.601085927228	0.14592870445
8	4926	806.467480700558	0.207706663592
8	4931	806.896092831022	0.099214962627
8	4936	807.324704961486	0.095925437003
8	4943	807.75331709195	0.401531335321
8	4950	808.181929222414	0.441631559339
8	4955	808.610541352878	0.746625842012
8	4960	809.039153483342	1.12364123409
8	4962	809.039153483342	0.477378893603
8	4964	809.467765613806	0.792460818739
8	4969	809.89637774427	0.178130082545
8	4978	810.439439324782	0.311150955273
8	4980	810.868051455246	0.471835444604
8	4985	811.29666358571	0.072635708752
8	4990	811.725275716174	0.311477419116
8	5005	814.473005453082	0.244536780916
8	5012	814.901617583546	0.333134997857
8	5015	815.33022971401	0.663812763308
8	5047	823.623151265598	0.2064368193
8	5050	824.051763396062	0.459116351849
8	5087	831.830973972354	0.178143087882
8	5090	832.259586102818	0.564330111371
8	5104	833.677642821517	0.393539448554
8	5109	834.106254951981	0.755819017142
8	5112	834.534867082445	0.939070695828
8	5115	834.963479212909	0.957131305628
8	5120	835.392091343373	0.336024611766
8	5140	843.445763088762	0.001772637152
8	5145	843.874375219226	0.240069923421
8	5150	844.30298734969	0.052505944477
8	5155	844.731599480154	0.26265206115
8	5160	845.160211610618	0.292316348932
8	5167	845.588823741082	0.326179906755
8	5170	846.017435871546	0.731575808465
8	5175	846.44604800201	0.25535130685
8	5180	846.874660132474	0.369767488724
8	5195	850.700560378869	0.126097149285
8	5200	851.129172509333	0.030561108714
8	5210	854.861722936916	0.327152383972
8	5222	855.901512022965	0.3053053949
8	5225	856.330124153429	0.723564808235
8	5235	858.845797925048	0.331374628915
8	5250	862.884948046101	0.417754091908
8	5255	863.313560176565	0.117991927339
8	5260	863.742172307029	0.315907356378
8	5289	868.609005998165	0.36581540631
8	5292	869.037618128629	0.677063167973
8	5297	869.466230259093	0.953624798924
8	5300	869.894842389557	0.728010973193
8	5333	881.203285409905	0.413657017391
8	5338	881.631897540369	0.823977616665
8	5341	882.060509670833	0.485490265417
8	5358	884.167706544901	0.365517496517
8	5361	884.596318675365	0.697537095145
8	5376	887.816525924449	0.010310908814
8	5383	888.245138054913	0.408348512886
8	5388	888.673750185377	0.563377133702
8	5395	889.102362315841	0.632584417726
8	5398	889.530974446305	0.52365368691
8	5403	889.959586576769	0.908395425546
8	5408	890.388198707233	0.68262577426
8	5411	890.816810837697	0.475174325338
8	5416	891.245422968161	0.265873904896
8	5436	897.272507602284	0.361668391734
8	5446	898.366069131002	0.187684350155
8	5456	899.475452283194	0.330625218872
8	5467	899.904064413658	0.231884092458
8	5472	900.332676544122	0.523634603173
8	5475	900.761288674586	0.891810820559
8	5478	901.18990080505	1.314615402019
8	5480	901.18990080505	1.180610332688
8	5502	907.470880819043	0.023352658878
8	5517	911.226154493958	0.220202127587
8	5529	912.674423090113	0.426849425999
8	5534	913.103035220577	0.4449557174
8	5539	913.531647351041	0.831121340447
8	5542	913.960259481505	0.663573668151
8	5562	917.773850835169	0.411106101253
8	5567	918.202462965633	0.331834489266
8	5582	922.611094531367	0.387029542053
8	5604	926.47523672548	0.282319496999
8	5607	926.903848855944	0.6066378424
8	5619	928.896736992727	0.353726641198
8	5622	929.325349123191	0.541802161884
8	5637	932.324246635603	0.0497458377
8	5644	932.752858766067	0.238178568657
8	5649	933.181470896531	0.547429315631
8	5654	933.610083026995	0.785191021245
8	5657	934.038695157459	0.601086337924
8	5662	934.467307287923	0.282037272485
8	5667	934.895919418387	0.147802558545
8	5672	935.324531548851	0.1758534307
8	5684	936.402582869877	0.372103264667
8	5700	938.383608945645	0.184404345054
8	5705	938.812221076109	0.464807088224
8	5708	939.240833206573	0.750798819301
8	5725	943.174316865508	0.234673509555
8	5730	943.602928995972	0.474596971583
8	5735	944.031541126436	0.48697084361
8	5740	944.4601532569	0.609873257887
8	5743	944.888765387364	0.485626996074
8	5755	947.234523551602	0.223597958601
8	5758	947.663135682066	0.526239685076
8	5780	949.762135368895	0.225353554104
8	5783	950.190747499359	0.566167010912
8	5788	950.619359629823	0.006888335617
8	5793	951.047971760287	0.412702757126
8	5798	951.476583890751	0.319806790539
8	5805	951.905196021215	0.410563513404
8	5808	952.333808151679	0.52612088528
8	5813	952.762420282143	0.33522652443
8	5833	957.004947180706	0.136351025515
8	5838	957.43355931117	0.230021235853
8	5878	968.773561747617	0.201016102135
8	5888	970.648289996446	0.061114510055
8	5902	972.080763804085	0.385403929228
8	5907	972.509375934549	0.539229967298
8	5912	972.937988065013	0.920017459588
8	5919	973.366600195477	1.256018191627
8	5921	973.366600195477	0.574651247395
8	5925	973.795212325941	0.718919274532
8	5928	974.223824456405	0.895299513896
8	5931	974.652436586869	1.234909897562
8	5939	975.09221092066	0.138828921244
8	5944	975.520823051124	0.017854945612
8	5949	975.949435181588	0.121826130301
8	5954	976.378047312052	0.154686984722
8	5964	978.332522187535	0.318309202276
8	5979	981.605106141576	0.352775530847
8	5989	983.183521932915	0.125266838538
8	6004	986.353316716044	0.393813764286
8	6009	986.781928846508	0.211389369521
8	6041	992.188795494551	0.457794012446
8	6045	992.617407625015	0.134191378576
8	6052	993.046019755479	0.40389352007
8	6055	993.474631885943	0.542072286187
8	6060	993.903244016407	0.175546097393

