version 2
run General-209-20240201-11:04:23-40057
attr configname General
attr datetime 20240201-11:04:23
attr experiment General
attr inifile main.ini
attr iterationvars "$0=1.4, $1=3.5, $2=50"
attr iterationvarsf 1.4,3.5,50-
attr measurement "$0=1.4, $1=3.5, $2=50"
attr network Rete
attr processid 40057
attr repetition 9
attr replication #9
attr resultdir results
attr runnumber 209
attr seedset 209
param Rete.lambda 1.4
param Rete.a 0.3s
param Rete.b 3.5s
param Rete.c 0.1s
param Rete.d 0.3s
param Rete.mu 3.0
param Rete.source2.interArrivalTime exponential(1s/lambda)
param Rete.source2.jobServiceTime exponential(1s/mu)
param Rete.source2.deadline uniform(a,b)
param Rete.server2.j 50
param Rete.server2.V uniform(c,d)

vector 0 Rete.passiveQueue queueLength:vector ETV
attr interpolationmode sample-hold
attr title "queue length, vector"
vector 1 Rete.sink lifeTime:vector ETV
attr interpolationmode none
attr title "lifetime of arrived jobs, vector"
attr unit s
vector 2 Rete.sink totalQueueingTime:vector ETV
attr interpolationmode none
attr title "the total time spent in queues by arrived jobs, vector"
attr unit s
vector 3 Rete.sink queuesVisited:vector ETV
attr interpolationmode none
attr title "the total number of queues visited by arrived jobs, vector"
vector 4 Rete.sink totalServiceTime:vector ETV
attr interpolationmode none
attr title "the total time spent  by arrived jobs, vector"
attr unit s
vector 5 Rete.sink totalDelayTime:vector ETV
attr interpolationmode none
attr title "the total time spent in delay nodes by arrived jobs, vector"
attr unit s
vector 6 Rete.sink delaysVisited:vector ETV
attr interpolationmode none
attr title "the total number of delays visited by arrived jobs, vector"
vector 7 Rete.sink generation:vector ETV
attr interpolationmode none
attr title "the generation of the arrived jobs, vector"
vector 8 Rete.passiveQueue queueingTime:vector ETV
attr interpolationmode none
attr title "queueing time at dequeue, vector"
attr unit s
0	0	0	0
0	55	10.747672596686	1
0	57	10.799101474344	2
0	58	10.817573333421	1
0	61	10.955128705149	0
0	115	16.868809924457	1
0	116	16.982271986458	0
0	120	17.038211426659	1
0	121	17.119827358186	0
0	145	21.666327683314	1
0	146	21.733711161335	0
0	170	23.71863142228	1
0	171	23.773290216982	0
0	215	28.455286425902	1
0	216	28.543185939934	0
0	245	33.187333268407	1
0	246	33.246081288288	0
0	281	38.367447344089	1
0	282	38.43097550179	0
0	316	45.089690809493	1
0	317	45.154692584005	0
0	351	48.367570775142	1
0	353	48.461739926997	2
0	354	48.499304158612	1
0	357	48.63685953034	0
0	371	50.458143997949	1
0	373	50.462410654425	2
0	374	50.476097712062	1
0	377	50.61365308379	0
0	401	56.908059553942	1
0	402	57.020995895799	0
0	431	61.595198074187	1
0	433	61.633045876711	2
0	435	61.634134177311	3
0	436	61.714469879054	2
0	439	61.852025250782	1
0	442	61.98958062251	0
0	451	63.507472213405	1
0	452	63.541933731656	0
0	532	77.629374945668	1
0	533	77.694996255984	0
0	692	103.521558573329	1
0	693	103.614739001759	0
0	747	113.261284035771	1
0	748	113.29099234841	0
0	778	117.177979069248	1
0	779	117.195560636157	0
0	808	121.329794790859	1
0	809	121.333542718177	0
0	833	125.094437749164	1
0	834	125.21064709151	0
0	873	129.379724719218	1
0	874	129.507288681152	0
0	898	132.452073776426	1
0	899	132.486126088464	0
0	908	133.224496601396	1
0	909	133.346637989908	0
0	918	133.81693696513	1
0	919	133.871374275027	0
0	933	135.76461732593	1
0	935	135.770364264767	2
0	936	135.845410227345	1
0	939	135.982965599073	0
0	958	137.581000575087	1
0	960	137.595400320532	2
0	961	137.647597822686	1
0	964	137.785153194414	0
0	993	142.79280187206	1
0	994	142.885865926095	0
0	1003	143.723739183931	1
0	1006	144.015281862588	0
0	1029	148.26311456418	1
0	1030	148.355919948948	0
0	1039	149.338276836336	1
0	1040	149.353630783533	0
0	1174	167.072581870509	1
0	1175	167.141063134637	0
0	1179	167.269621474582	1
0	1180	167.278618506365	0
0	1204	171.176910979093	1
0	1205	171.187666116845	0
0	1229	175.842206798314	1
0	1231	175.876155055035	2
0	1232	175.948152729459	1
0	1235	176.085708101187	0
0	1265	181.371428639759	1
0	1266	181.507263504048	0
0	1340	192.25410012435	1
0	1341	192.341128978097	0
0	1345	192.383625774501	1
0	1346	192.478684349825	0
0	1375	197.151693805982	1
0	1376	197.209995943655	0
0	1390	199.127935724661	1
0	1391	199.257993618175	0
0	1395	199.323662879341	1
0	1396	199.395548989903	0
0	1415	201.856730763924	1
0	1416	201.928875885224	0
0	1425	202.521968901353	1
0	1426	202.615539573544	0
0	1430	202.648382829604	1
0	1432	202.739590334159	2
0	1433	202.753094945272	1
0	1436	202.890650317	0
0	1440	202.926084230128	1
0	1441	203.028205688728	0
0	1455	204.191650273055	1
0	1457	204.235139832809	2
0	1459	204.253743944708	3
0	1460	204.26194848321	2
0	1464	204.378057746768	3
0	1465	204.399503854938	2
0	1468	204.537059226666	1
0	1471	204.674614598394	0
0	1511	209.135475270336	1
0	1512	209.180936011646	0
0	1526	211.604506348308	1
0	1527	211.676893054739	0
0	1536	212.275228334491	1
0	1537	212.307556093217	0
0	1541	212.370757329312	1
0	1542	212.445111464945	0
0	1596	219.99209261642	1
0	1597	220.022413773119	0
0	1666	234.317798408227	1
0	1667	234.359762301155	0
0	1691	238.490293104922	1
0	1692	238.546470531295	0
0	1701	239.079571814837	1
0	1702	239.121063628502	0
0	1721	242.236085764508	1
0	1722	242.236863873739	0
0	1731	242.462343843737	1
0	1732	242.597308497187	0
0	1756	245.797955450067	1
0	1760	245.977828274849	2
0	1761	245.992741675199	1
0	1763	246.130297046927	0
0	1802	256.773208691778	1
0	1803	256.849035708571	0
0	1882	267.257139078311	1
0	1883	267.291228016084	0
0	1887	267.342886018337	1
0	1888	267.428783387812	0
0	1967	279.557291401981	1
0	1968	279.618922948579	0
0	1997	280.939247224713	1
0	1998	281.061684576911	0
0	2038	284.495823302623	1
0	2039	284.61296557909	0
0	2078	292.173496661975	1
0	2079	292.275021695849	0
0	2128	298.966097822379	1
0	2129	299.019398511819	0
0	2168	303.968636216525	1
0	2169	304.025819906387	0
0	2178	304.431970684693	1
0	2179	304.5666520794	0
0	2198	306.438880498703	1
0	2199	306.511139136554	0
0	2203	306.581297190047	1
0	2204	306.648694508282	0
0	2238	311.166577682498	1
0	2239	311.207278333577	0
0	2264	313.50956791006	1
0	2265	313.55600592082	0
0	2439	341.169060261636	1
0	2440	341.224999422347	0
0	2454	341.957512470458	1
0	2455	342.014626850519	0
0	2511	350.213904542278	1
0	2512	350.215368137887	0
0	2525	351.469091928806	1
0	2526	351.524185651274	0
0	2530	351.554138705561	1
0	2531	351.661741023002	0
0	2585	365.523197702918	1
0	2586	365.616110212153	0
0	2595	366.547878728992	1
0	2596	366.681190644245	0
0	2635	375.235258620032	1
0	2636	375.336231415671	0
0	2680	380.911810333527	1
0	2681	380.914244978372	0
0	2685	380.967689307777	1
0	2686	381.0518003501	0
0	2730	388.404115373176	1
0	2731	388.453580173252	0
0	2755	390.149214067074	1
0	2756	390.16950915593	0
0	2806	397.219148750496	1
0	2807	397.244924362499	0
0	2821	398.263031998685	1
0	2822	398.267099541182	0
0	2851	402.547711475321	1
0	2853	402.636281379066	2
0	2854	402.66230163665	1
0	2858	402.784986970309	2
0	2859	402.799857008378	1
0	2862	402.937412380106	0
0	2891	407.485640213399	1
0	2892	407.507450889519	0
0	2901	407.758225535819	1
0	2902	407.840266561175	0
0	2906	407.902952331544	1
0	2908	407.965930246828	2
0	2909	407.977821932903	1
0	2912	408.115377304631	0
0	2941	413.971585816688	1
0	2942	414.073327698071	0
0	2956	415.736057514975	1
0	2957	415.775545643002	0
0	2981	419.64253173045	1
0	2982	419.744767752837	0
0	2996	421.000285597481	1
0	2997	421.07909533566	0
0	3077	436.450675121028	1
0	3078	436.534678444857	0
0	3082	436.567315856484	1
0	3083	436.672233816585	0
0	3092	436.962841817981	1
0	3093	437.071592622373	0
0	3097	437.184232572554	1
0	3098	437.209147994101	0
0	3117	438.689200952162	1
0	3118	438.712438710133	0
0	3157	443.539591532154	1
0	3158	443.597859384323	0
0	3162	443.676590895195	1
0	3163	443.735414756051	0
0	3237	453.295884633932	1
0	3238	453.397887935723	0
0	3242	453.436393131133	1
0	3244	453.515650266363	2
0	3245	453.535443307451	1
0	3248	453.672998679179	0
0	3273	457.476772271999	1
0	3274	457.477496255908	0
0	3343	465.276361048093	1
0	3344	465.399271550779	0
0	3383	471.274980168554	1
0	3384	471.404715321888	0
0	3478	488.506575452486	1
0	3479	488.540512175625	0
0	3493	489.302176429191	1
0	3494	489.318212253357	0
0	3498	489.443957126512	1
0	3499	489.455767625085	0
0	3513	490.77854488618	1
0	3515	490.81327345852	2
0	3518	491.041610960124	1
0	3520	491.179166331852	0
0	3559	494.251705199067	1
0	3560	494.303022923772	0
0	3649	510.017900399187	1
0	3650	510.083051558778	0
0	3659	510.689720972399	1
0	3660	510.770492419711	0
0	3679	512.714086845741	1
0	3680	512.827469573546	0
0	3714	518.665146471712	1
0	3715	518.708292432593	0
0	3749	522.181989109128	1
0	3750	522.189078597196	0
0	3754	522.209789129174	1
0	3755	522.326633968924	0
0	3800	531.186454490368	1
0	3802	531.193152454122	2
0	3803	531.237849074301	1
0	3806	531.375404446029	0
0	3830	534.365791501867	1
0	3831	534.446038971652	0
0	3840	535.838507220788	1
0	3841	535.878235740859	0
0	3855	537.207230949186	1
0	3856	537.294567557493	0
0	3880	540.020858189049	1
0	3882	540.12991539393	2
0	3883	540.155521607335	1
0	3886	540.293076979063	0
0	3910	545.769363071722	1
0	3911	545.794466071959	0
0	3935	548.228097944622	1
0	3937	548.261625436088	2
0	3938	548.351389667213	1
0	3941	548.488945038941	0
0	3955	549.85031431381	1
0	3956	549.983142897491	0
0	3975	551.332145733882	1
0	3976	551.435506533325	0
0	4015	557.651572895035	1
0	4018	557.941373725987	0
0	4066	564.732367716063	1
0	4067	564.801994215266	0
0	4071	564.895750435918	1
0	4072	564.939549586994	0
0	4081	565.308819719074	1
0	4082	565.349936924448	0
0	4196	584.363744676208	1
0	4197	584.479909081115	0
0	4206	585.160033597604	1
0	4207	585.225835793537	0
0	4211	585.311937726238	1
0	4213	585.320716858307	2
0	4214	585.363391165265	1
0	4217	585.500946536993	0
0	4236	588.486389441028	1
0	4237	588.537763596985	0
0	4251	589.30650115306	1
0	4252	589.349809513681	0
0	4292	594.416054810832	1
0	4293	594.498371832844	0
0	4297	594.499542123136	1
0	4298	594.635927204572	0
0	4337	599.73524823887	1
0	4338	599.758231667765	0
0	4362	602.159366104621	1
0	4363	602.288438938175	0
0	4412	607.018308558485	1
0	4413	607.135336972239	0
0	4507	621.555254604012	1
0	4508	621.657337730944	0
0	4523	623.273920925713	1
0	4525	623.377612052564	2
0	4526	623.399941937627	1
0	4529	623.537497309355	0
0	4568	630.295322031243	1
0	4570	630.396850808519	2
0	4571	630.409446430845	1
0	4574	630.547001802573	0
0	4588	633.605173147848	1
0	4589	633.706613546357	0
0	4603	636.273610963485	1
0	4604	636.397714678332	0
0	4608	636.436693293145	1
0	4609	636.53527005006	0
0	4613	636.57723327364	1
0	4614	636.672825421788	0
0	4653	642.809733012456	1
0	4654	642.901486915901	0
0	4658	643.036841229566	1
0	4659	643.039042287629	0
0	4663	643.096255570788	1
0	4664	643.176597659357	0
0	4673	643.532945714995	1
0	4674	643.608790901368	0
0	4698	647.867129902834	1
0	4699	647.987638475412	0
0	4703	648.111912187353	1
0	4704	648.12519384714	0
0	4738	651.917037908035	1
0	4739	651.946722187032	0
0	4753	653.412482273894	1
0	4754	653.498922837863	0
0	4768	657.005498024021	1
0	4771	657.255222345044	0
0	4789	659.331724708679	1
0	4790	659.380654122897	0
0	4794	659.382949081305	1
0	4795	659.518209494625	0
0	4799	659.635019731215	1
0	4800	659.655764866353	0
0	4809	660.491597512189	1
0	4810	660.600954645051	0
0	4824	664.889810983505	1
0	4825	664.912138850802	0
0	4864	675.922791402814	1
0	4865	675.999555430604	0
0	4889	679.357406895972	1
0	4890	679.419198380814	0
0	4924	685.685737374264	1
0	4925	685.735898892982	0
0	4964	692.507269612079	1
0	4965	692.618876193967	0
0	4999	696.346500319525	1
0	5000	696.388538713096	0
0	5030	699.911382018046	1
0	5032	699.921410888236	2
0	5033	700.016396229087	1
0	5037	700.05726716072	2
0	5039	700.067591923286	3
0	5040	700.153951600815	2
0	5043	700.291506972543	1
0	5046	700.429062344271	0
0	5060	702.133144141803	1
0	5061	702.133678345915	0
0	5065	702.241397445609	1
0	5066	702.271233717643	0
0	5070	702.280947100282	1
0	5071	702.408789089371	0
0	5105	706.196900755902	1
0	5106	706.271388056035	0
0	5125	709.497025619462	1
0	5126	709.610638275305	0
0	5165	715.79902045621	1
0	5167	715.832227624331	2
0	5168	715.8899804563	1
0	5171	716.027535828028	0
0	5190	718.512611665835	1
0	5191	718.523237167884	0
0	5200	719.35970270472	1
0	5201	719.370031884923	0
0	5210	719.885956309856	1
0	5211	719.896334970357	0
0	5281	731.118301321589	1
0	5282	731.236349847088	0
0	5296	731.697466782865	1
0	5297	731.819947296469	0
0	5306	733.846392235528	1
0	5307	733.926305602481	0
0	5391	747.242992734622	1
0	5392	747.319162936954	0
0	5436	752.308313988211	1
0	5437	752.424915867955	0
0	5466	754.956674784674	1
0	5467	754.977709466606	0
0	5481	756.304831943871	1
0	5482	756.37707908473	0
0	5491	757.399236438034	1
0	5492	757.465804294087	0
0	5506	759.387960251383	1
0	5507	759.424710699941	0
0	5511	759.508173677274	1
0	5512	759.562266071669	0
0	5537	762.660673338706	1
0	5538	762.751160004108	0
0	5542	762.82169181429	1
0	5543	762.888715375836	0
0	5587	768.745186373119	1
0	5588	768.745813364863	0
0	5592	768.771882316947	1
0	5593	768.883368736591	0
0	5602	769.156830949088	1
0	5603	769.268461185937	0
0	5652	776.558603129673	1
0	5653	776.677217042499	0
0	5672	778.679134295273	1
0	5673	778.792943446485	0
0	5742	791.251581468943	1
0	5743	791.25984718566	0
0	5752	791.706112238585	1
0	5753	791.734314410861	0
0	5778	795.670786728648	1
0	5780	795.707011695459	2
0	5781	795.720736656249	1
0	5784	795.858292027977	0
0	5873	811.003275615938	1
0	5874	811.106639575419	0
0	5973	828.215315329969	1
0	5975	828.313806348922	2
0	5976	828.339233109813	1
0	5979	828.476788481541	0
0	5993	831.550995803447	1
0	5994	831.578124456848	0
0	5998	831.590557731411	1
0	6000	831.605093683454	2
0	6001	831.715679828576	1
0	6005	831.78309649617	2
0	6006	831.853235200304	1
0	6009	831.990790572032	0
0	6044	837.271945570105	1
0	6045	837.305073030608	0
0	6084	847.951435797342	1
0	6085	848.086271742113	0
0	6099	849.664890838161	1
0	6100	849.679049172502	0
0	6149	859.122661228944	1
0	6150	859.226486335612	0
0	6189	863.876953183098	1
0	6190	863.927921542584	0
0	6209	866.121583034716	1
0	6210	866.125960733362	0
0	6249	873.394364343361	1
0	6250	873.484149103028	0
0	6320	886.704209351897	1
0	6321	886.793104360769	0
0	6365	894.967024811272	1
0	6366	895.084357151132	0
0	6400	899.233661759689	1
0	6402	899.249581901104	2
0	6403	899.255876589309	1
0	6406	899.393431961037	0
0	6415	900.004530602044	1
0	6416	900.083444648523	0
0	6430	902.999951667025	1
0	6431	903.057400513433	0
0	6455	905.74769969524	1
0	6456	905.774736764307	0
0	6460	905.910182496794	1
0	6461	905.912292136035	0
0	6500	916.354112652656	1
0	6501	916.434193997179	0
0	6515	916.960174362462	1
0	6517	916.962397058554	2
0	6518	917.027088756789	1
0	6521	917.164644128517	0
0	6551	922.466238089283	1
0	6552	922.48820315769	0
0	6566	923.420064853582	1
0	6567	923.471765312558	0
0	6616	933.710992650685	1
0	6618	933.721042846282	2
0	6619	933.735667354919	1
0	6623	933.872389725535	2
0	6624	933.873222726647	1
0	6627	934.010778098375	0
0	6651	936.380141101206	1
0	6652	936.488368176115	0
0	6666	937.220997906608	1
0	6667	937.278560808618	0
0	6701	944.911169238961	1
0	6702	944.982417432334	0
0	6716	945.827902754665	1
0	6717	945.839188359587	0
0	6721	945.952509984698	1
0	6722	945.976743731315	0
0	6802	958.770749953199	1
0	6803	958.801824387372	0
0	6807	958.857973085089	1
0	6808	958.9393797591	0
0	6852	964.853268780868	1
0	6853	964.924461638567	0
0	6897	970.960549880757	1
0	6899	971.049487228726	2
0	6900	971.058342597653	1
0	6904	971.084900305149	2
0	6905	971.195897969381	1
0	6908	971.333453341109	0
0	6927	976.548095374302	1
0	6928	976.563427735092	0
0	6957	982.9253705313	1
0	6958	982.927429830675	0
0	6997	988.722946931507	1
0	6998	988.756387195253	0
0	7017	991.280464692774	1
0	7018	991.409922838035	0
0	7043	992.872758364746	1
0	7044	993.009548560432	0
0	7048	993.047875045209	1
0	7050	993.088304479137	2
0	7051	993.14710393216	1
0	7054	993.284659303888	0
0	7103	999.305495209044	1
0	7104	999.432632326277	0
0	7108	999.478531974501	1
0	7109	999.570187698005	0
1	5	1.461354590906	0.137555371728
1	10	2.681274643507	0.137555371728
1	15	4.462945803857	0.137555371728
1	20	5.16696601906	0.137555371728
1	25	7.128108719321	0.137555371728
1	30	7.434914388855	0.137555371728
1	35	7.83418514346	0.137555371728
1	40	8.715069403911	0.137555371728
1	45	9.774169218174	0.137555371728
1	50	10.021945543143	0.137555371728
1	59	10.817573333421	0.137555371728
1	62	10.955128705149	0.207456108463
1	65	11.092684076877	0.293582602533
1	70	12.269587849362	0.137555371728
1	75	13.130026369911	0.137555371728
1	80	13.449251336117	0.137555371728
1	85	13.7486514002	0.137555371728
1	90	14.144828154983	0.137555371728
1	95	14.283055649262	0.137555371728
1	100	16.13989759908	0.137555371728
1	105	16.559567137462	0.137555371728
1	110	16.780034271962	0.137555371728
1	117	16.982271986458	0.137555371728
1	122	17.119827358186	0.251017433729
1	125	17.257382729914	0.219171303255
1	130	20.257767579968	0.137555371728
1	135	20.438083805576	0.137555371728
1	140	21.434565550775	0.137555371728
1	147	21.733711161335	0.137555371728
1	150	21.871266533063	0.204938849749
1	155	22.190745177922	0.137555371728
1	160	22.921031585038	0.137555371728
1	165	23.450947185938	0.137555371728
1	172	23.773290216982	0.137555371728
1	175	23.91084558871	0.19221416643
1	180	24.834386052024	0.137555371728
1	185	25.323826188221	0.137555371728
1	190	25.590453980954	0.137555371728
1	195	25.744671955538	0.137555371728
1	200	26.893095536899	0.137555371728
1	205	27.124403783966	0.137555371728
1	210	28.197315574924	0.137555371728
1	217	28.543185939934	0.137555371728
1	220	28.680741311662	0.22545488576
1	225	31.390686935634	0.137555371728
1	230	32.453624318716	0.137555371728
1	235	32.701023888177	0.137555371728
1	240	32.935390917048	0.137555371728
1	247	33.246081288288	0.137555371728
1	250	33.383636660016	0.196303391609
1	256	34.692859124781	0.137555371728
1	261	35.795428498383	0.137555371728
1	266	36.304346342748	0.137555371728
1	271	36.468796699405	0.137555371728
1	276	37.033764213755	0.137555371728
1	283	38.43097550179	0.137555371728
1	286	38.568530873518	0.201083529429
1	291	39.265329164915	0.137555371728
1	296	40.033471566459	0.137555371728
1	301	40.409884935565	0.137555371728
1	306	43.050699552618	0.137555371728
1	311	44.924004605295	0.137555371728
1	318	45.154692584005	0.137555371728
1	321	45.292247955733	0.20255714624
1	326	46.11113991575	0.137555371728
1	331	46.350610555365	0.137555371728
1	336	46.85161070593	0.137555371728
1	341	47.389743566484	0.137555371728
1	346	48.109578519696	0.137555371728
1	355	48.499304158612	0.137555371728
1	358	48.63685953034	0.269288755198
1	361	48.774414902068	0.312674975071
1	366	49.426659650778	0.137555371728
1	375	50.476097712062	0.137555371728
1	378	50.61365308379	0.155509085841
1	381	50.751208455518	0.288797801093
1	386	51.316885997798	0.137555371728
1	391	52.0704315951	0.137555371728
1	396	55.53546863484	0.137555371728
1	403	57.020995895799	0.137555371728
1	406	57.158551267527	0.250491713585
1	411	57.664785256537	0.137555371728
1	416	59.521322805034	0.137555371728
1	421	60.126380310669	0.137555371728
1	426	60.281729672802	0.137555371728
1	437	61.714469879054	0.137555371728
1	440	61.852025250782	0.256827176595
1	443	61.98958062251	0.356534745799
1	446	62.127135994238	0.493001816927
1	453	63.541933731656	0.137555371728
1	456	63.679489103384	0.172016889979
1	461	64.877047712307	0.137555371728
1	466	66.066756049796	0.137555371728
1	471	68.310763778278	0.137555371728
1	476	68.857195385867	0.137555371728
1	481	70.810865949335	0.137555371728
1	486	71.834435459857	0.137555371728
1	491	72.784867709266	0.137555371728
1	496	73.2481130774	0.137555371728
1	501	73.611673067054	0.137555371728
1	507	74.700892029542	0.137555371728
1	512	75.860935119921	0.137555371728
1	517	76.152493404437	0.137555371728
1	522	76.899776150594	0.137555371728
1	527	77.406585828473	0.137555371728
1	534	77.694996255984	0.137555371728
1	537	77.832551627712	0.203176682044
1	542	80.372113387262	0.137555371728
1	547	80.775106921588	0.137555371728
1	552	81.291543205318	0.137555371728
1	557	81.832452666843	0.137555371728
1	562	83.554369197343	0.137555371728
1	567	83.877522160377	0.137555371728
1	572	85.24473953621	0.137555371728
1	577	85.536718192081	0.137555371728
1	582	85.980776002562	0.137555371728
1	587	86.683621253121	0.137555371728
1	592	88.186226421638	0.137555371728
1	597	91.092450336154	0.137555371728
1	602	91.248031038389	0.137555371728
1	607	91.578241766551	0.137555371728
1	612	93.174857170129	0.137555371728
1	617	93.376044261561	0.137555371728
1	622	94.174058474652	0.137555371728
1	627	95.488169544857	0.137555371728
1	632	95.628149830659	0.137555371728
1	637	96.444414064942	0.137555371728
1	642	97.002183389553	0.137555371728
1	647	97.393466960321	0.137555371728
1	652	98.382424699673	0.137555371728
1	657	98.940105159536	0.137555371728
1	662	99.232161317301	0.137555371728
1	667	99.813655868836	0.137555371728
1	672	100.622290077617	0.137555371728
1	677	101.251704719444	0.137555371728
1	682	101.422100187451	0.137555371728
1	687	102.389225481159	0.137555371728
1	694	103.614739001759	0.137555371728
1	697	103.752294373487	0.230735800158
1	702	105.614381337946	0.137555371728
1	707	106.046433902472	0.137555371728
1	712	106.608920931169	0.137555371728
1	717	106.938106445506	0.137555371728
1	722	107.346480593741	0.137555371728
1	727	107.906722597767	0.137555371728
1	732	108.203976942586	0.137555371728
1	737	109.872181049039	0.137555371728
1	742	110.327152833353	0.137555371728
1	749	113.29099234841	0.137555371728
1	752	113.428547720138	0.167263684367
1	758	113.968999535953	0.137555371728
1	763	115.806469328496	0.137555371728
1	768	116.46170951938	0.137555371728
1	773	116.989740608004	0.137555371728
1	780	117.195560636157	0.137555371728
1	783	117.333116007885	0.155136938637
1	788	117.90046724354	0.137555371728
1	793	118.298371841508	0.137555371728
1	798	119.497331124503	0.137555371728
1	803	121.091543787543	0.137555371728
1	810	121.333542718177	0.137555371728
1	813	121.471098089905	0.141303299046
1	818	122.300548460503	0.137555371728
1	823	122.877752989676	0.137555371728
1	828	124.07789981038	0.137555371728
1	835	125.21064709151	0.137555371728
1	838	125.348202463238	0.253764714074
1	843	125.703256753549	0.137555371728
1	848	126.239479008942	0.137555371728
1	853	127.103472300959	0.137555371728
1	858	127.793670558672	0.137555371728
1	863	128.688894968544	0.137555371728
1	868	128.938702420922	0.137555371728
1	875	129.507288681152	0.137555371728
1	878	129.64484405288	0.265119333662
1	883	129.914949099845	0.137555371728
1	888	130.360551113293	0.137555371728
1	893	131.417772455101	0.137555371728
1	900	132.486126088464	0.137555371728
1	903	132.623681460192	0.171607683766
1	910	133.346637989908	0.137555371728
1	913	133.484193361636	0.25969676024
1	920	133.871374275027	0.137555371728
1	923	134.008929646755	0.191992681625
1	928	135.602954174126	0.137555371728
1	937	135.845410227345	0.137555371728
1	940	135.982965599073	0.218348273143
1	943	136.120520970801	0.350156706034
1	948	136.636518785378	0.137555371728
1	953	137.374034822363	0.137555371728
1	962	137.647597822686	0.137555371728
1	965	137.785153194414	0.204152619327
1	968	137.922708566142	0.32730824561
1	973	139.993103077305	0.137555371728
1	978	140.627409523824	0.137555371728
1	983	141.864080265759	0.137555371728
1	988	142.696564789844	0.137555371728
1	995	142.885865926095	0.137555371728
1	998	143.023421297823	0.230619425763
1	1005	143.852451287731	0.137555371728
1	1009	144.152837234316	0.429098050385
1	1014	145.555444688416	0.137555371728
1	1019	146.310036253124	0.137555371728
1	1024	147.583230422686	0.137555371728
1	1031	148.355919948948	0.137555371728
1	1034	148.493475320676	0.230360756496
1	1041	149.353630783533	0.137555371728
1	1044	149.491186155261	0.152909318925
1	1049	150.665478011012	0.137555371728
1	1054	151.184658951392	0.137555371728
1	1059	151.394992052002	0.137555371728
1	1064	151.954183629609	0.137555371728
1	1069	152.214267228453	0.137555371728
1	1074	154.718047548419	0.137555371728
1	1079	155.339613104373	0.137555371728
1	1084	156.252780661598	0.137555371728
1	1089	156.733124990464	0.137555371728
1	1094	157.108571584874	0.137555371728
1	1099	157.367369806675	0.137555371728
1	1104	157.67191188711	0.137555371728
1	1109	157.927741287444	0.137555371728
1	1114	158.430275407427	0.137555371728
1	1119	158.801661625402	0.137555371728
1	1124	159.107946231812	0.137555371728
1	1129	159.671254368498	0.137555371728
1	1134	159.866720477759	0.137555371728
1	1139	160.525576654237	0.137555371728
1	1144	160.815117567969	0.137555371728
1	1149	163.395314280379	0.137555371728
1	1154	163.988603444863	0.137555371728
1	1159	164.550710725796	0.137555371728
1	1164	165.917155049308	0.137555371728
1	1169	166.169173847033	0.137555371728
1	1176	167.141063134637	0.137555371728
1	1181	167.278618506365	0.206036635856
1	1184	167.416173878093	0.146552403511
1	1189	168.388621961167	0.137555371728
1	1194	168.671847139499	0.137555371728
1	1199	169.335004743354	0.137555371728
1	1206	171.187666116845	0.137555371728
1	1209	171.325221488573	0.14831050948
1	1214	171.824225058382	0.137555371728
1	1219	173.625434185208	0.137555371728
1	1224	174.338266863558	0.137555371728
1	1233	175.948152729459	0.137555371728
1	1236	176.085708101187	0.243501302873
1	1239	176.223263472915	0.34710841788
1	1244	176.572854701242	0.137555371728
1	1249	177.052533747391	0.137555371728
1	1254	177.216799519351	0.137555371728
1	1260	177.827228852377	0.137555371728
1	1267	181.507263504048	0.137555371728
1	1270	181.644818875776	0.273390236017
1	1275	182.105235950827	0.137555371728
1	1280	183.04384938117	0.137555371728
1	1285	183.459533748739	0.137555371728
1	1290	183.671123081033	0.137555371728
1	1295	184.218448652875	0.137555371728
1	1300	185.580153470718	0.137555371728
1	1305	187.177936702509	0.137555371728
1	1310	187.584207993558	0.137555371728
1	1315	188.202804851125	0.137555371728
1	1320	188.603397490918	0.137555371728
1	1325	189.920572744554	0.137555371728
1	1330	190.932228407889	0.137555371728
1	1335	191.468284563749	0.137555371728
1	1342	192.341128978097	0.137555371728
1	1347	192.478684349825	0.224584225475
1	1350	192.616239721553	0.232613947052
1	1355	192.780211360951	0.137555371728
1	1360	192.946327633017	0.137555371728
1	1365	194.812466799036	0.137555371728
1	1370	195.415776575337	0.137555371728
1	1377	197.209995943655	0.137555371728
1	1380	197.347551315383	0.195857509401
1	1385	198.282819046348	0.137555371728
1	1392	199.257993618175	0.137555371728
1	1397	199.395548989903	0.267613265242
1	1400	199.533104361631	0.20944148229
1	1405	200.336367934483	0.137555371728
1	1410	201.638588230347	0.137555371728
1	1417	201.928875885224	0.137555371728
1	1420	202.066431256952	0.209700493028
1	1427	202.615539573544	0.137555371728
1	1434	202.753094945272	0.231126043919
1	1437	202.890650317	0.242267487396
1	1442	203.028205688728	0.288615354569
1	1445	203.165761060456	0.239676830328
1	1450	204.085389024741	0.137555371728
1	1461	204.26194848321	0.137555371728
1	1466	204.399503854938	0.207853581883
1	1469	204.537059226666	0.301919393857
1	1472	204.674614598394	0.420870653686
1	1475	204.812169970122	0.434112223354
1	1480	205.472547018622	0.137555371728
1	1485	206.276142979334	0.137555371728
1	1490	206.692626020683	0.137555371728
1	1495	207.61528260787	0.137555371728
1	1500	207.896716776426	0.137555371728
1	1505	208.566236484688	0.137555371728
1	1513	209.180936011646	0.137555371728
1	1516	209.318491383374	0.183016113038
1	1521	211.197037564888	0.137555371728
1	1528	211.676893054739	0.137555371728
1	1531	211.814448426467	0.209942078159
1	1538	212.307556093217	0.137555371728
1	1543	212.445111464945	0.169883130454
1	1546	212.582666836673	0.211909507361
1	1551	213.800435964264	0.137555371728
1	1556	214.359278498172	0.137555371728
1	1561	214.754047130438	0.137555371728
1	1566	215.423988084136	0.137555371728
1	1571	216.148479225379	0.137555371728
1	1576	216.854141304466	0.137555371728
1	1581	217.271092345189	0.137555371728
1	1586	218.397713967767	0.137555371728
1	1591	218.651187688008	0.137555371728
1	1598	220.022413773119	0.137555371728
1	1601	220.159969144847	0.167876528427
1	1606	220.759640453344	0.137555371728
1	1611	221.204350455848	0.137555371728
1	1616	221.595664116206	0.137555371728
1	1621	222.284775395372	0.137555371728
1	1626	222.895019442183	0.137555371728
1	1631	225.962814761217	0.137555371728
1	1636	226.352171794672	0.137555371728
1	1641	228.633271430548	0.137555371728
1	1646	230.644379287083	0.137555371728
1	1651	231.225841276512	0.137555371728
1	1656	231.724117442036	0.137555371728
1	1661	232.053646049871	0.137555371728
1	1668	234.359762301155	0.137555371728
1	1671	234.497317672883	0.179519264656
1	1676	236.011826403279	0.137555371728
1	1681	236.49331093107	0.137555371728
1	1686	237.949319077474	0.137555371728
1	1693	238.546470531295	0.137555371728
1	1696	238.684025903023	0.193732798101
1	1703	239.121063628502	0.137555371728
1	1706	239.25861900023	0.179047185393
1	1711	240.450460916568	0.137555371728
1	1716	241.210701596683	0.137555371728
1	1723	242.236863873739	0.137555371728
1	1726	242.374419245467	0.138333480959
1	1733	242.597308497187	0.137555371728
1	1736	242.734863868915	0.272520025178
1	1741	243.261171872142	0.137555371728
1	1746	243.571844313969	0.137555371728
1	1751	244.916843011557	0.137555371728
1	1758	245.829911100342	0.137555371728
1	1764	246.130297046927	0.33234159686
1	1767	246.267852418655	0.290024143806
1	1772	247.409845289948	0.137555371728
1	1777	248.75517819649	0.137555371728
1	1782	249.262818703247	0.137555371728
1	1787	254.637348846231	0.137555371728
1	1792	254.905487955714	0.137555371728
1	1797	256.45620773172	0.137555371728
1	1804	256.849035708571	0.137555371728
1	1807	256.986591080299	0.213382388521
1	1812	257.161244486703	0.137555371728
1	1817	257.530818597065	0.137555371728
1	1822	258.067050531912	0.137555371728
1	1827	258.286970500223	0.137555371728
1	1832	259.02264356465	0.137555371728
1	1837	260.048171865421	0.137555371728
1	1842	261.079808161739	0.137555371728
1	1847	261.516173835665	0.137555371728
1	1852	262.260038418877	0.137555371728
1	1857	263.229895385254	0.137555371728
1	1862	263.541141712443	0.137555371728
1	1867	264.097174873102	0.137555371728
1	1872	264.290970599876	0.137555371728
1	1877	264.767153909129	0.137555371728
1	1884	267.291228016084	0.137555371728
1	1889	267.428783387812	0.171644309501
1	1892	267.56633875954	0.223452741203
1	1897	268.068119354406	0.137555371728
1	1902	268.247131198098	0.137555371728
1	1907	269.05042652795	0.137555371728
1	1912	269.288970309761	0.137555371728
1	1917	270.896444198979	0.137555371728
1	1922	271.215127334969	0.137555371728
1	1927	271.414524873566	0.137555371728
1	1932	272.193432093158	0.137555371728
1	1937	272.592549210693	0.137555371728
1	1942	272.789719379643	0.137555371728
1	1947	274.602511744291	0.137555371728
1	1952	276.095796007646	0.137555371728
1	1957	277.934807775726	0.137555371728
1	1962	279.056235866178	0.137555371728
1	1969	279.618922948579	0.137555371728
1	1972	279.756478320307	0.199186918326
1	1977	280.226037089718	0.137555371728
1	1982	280.512373198951	0.137555371728
1	1987	280.741043043061	0.137555371728
1	1992	280.894558275573	0.137555371728
1	1999	281.061684576911	0.137555371728
1	2002	281.199239948639	0.259992723926
1	2007	281.691446961128	0.137555371728
1	2013	282.577341573787	0.137555371728
1	2018	283.504046924207	0.137555371728
1	2023	283.83184118757	0.137555371728
1	2028	283.975154529505	0.137555371728
1	2033	284.426828895692	0.137555371728
1	2040	284.61296557909	0.137555371728
1	2043	284.750520950818	0.254697648195
1	2048	285.354506042855	0.137555371728
1	2053	286.6505166603	0.137555371728
1	2058	287.117781152859	0.137555371728
1	2063	290.246397469978	0.137555371728
1	2068	291.250271986957	0.137555371728
1	2073	291.422852602902	0.137555371728
1	2080	292.275021695849	0.137555371728
1	2083	292.412577067577	0.239080405602
1	2088	292.593308695142	0.137555371728
1	2093	294.153336483544	0.137555371728
1	2098	294.381717801931	0.137555371728
1	2103	295.078983579457	0.137555371728
1	2108	295.556031470542	0.137555371728
1	2113	295.749660311729	0.137555371728
1	2118	297.73938439033	0.137555371728
1	2123	298.15235990385	0.137555371728
1	2130	299.019398511819	0.137555371728
1	2133	299.156953883547	0.190856061168
1	2138	299.365305970203	0.137555371728
1	2143	299.981683284654	0.137555371728
1	2148	300.577178883256	0.137555371728
1	2153	301.507638514895	0.137555371728
1	2158	301.906369898614	0.137555371728
1	2163	303.441610837098	0.137555371728
1	2170	304.025819906387	0.137555371728
1	2173	304.163375278115	0.19473906159
1	2180	304.5666520794	0.137555371728
1	2183	304.704207451128	0.272236766435
1	2188	305.488017719787	0.137555371728
1	2193	306.015013861734	0.137555371728
1	2200	306.511139136554	0.137555371728
1	2205	306.648694508282	0.209814009579
1	2208	306.78624988001	0.204952689963
1	2213	307.87576079957	0.137555371728
1	2218	308.655286827436	0.137555371728
1	2223	308.926753879354	0.137555371728
1	2228	309.904061069957	0.137555371728
1	2233	310.661814730559	0.137555371728
1	2240	311.207278333577	0.137555371728
1	2243	311.344833705305	0.178256022807
1	2248	311.563233054193	0.137555371728
1	2253	311.721571813194	0.137555371728
1	2258	312.651241157776	0.137555371728
1	2266	313.55600592082	0.137555371728
1	2269	313.693561292548	0.183993382488
1	2274	316.564974495043	0.137555371728
1	2279	318.330066510118	0.137555371728
1	2284	318.494233006228	0.137555371728
1	2289	319.115178720872	0.137555371728
1	2294	319.311537021036	0.137555371728
1	2299	320.345553475547	0.137555371728
1	2304	321.414192525859	0.137555371728
1	2309	322.210943092558	0.137555371728
1	2314	322.743708963626	0.137555371728
1	2319	323.257323142987	0.137555371728
1	2324	324.32610058895	0.137555371728
1	2329	324.886511327779	0.137555371728
1	2334	325.231729495849	0.137555371728
1	2339	327.080003763576	0.137555371728
1	2344	327.41326905153	0.137555371728
1	2349	327.9690069891	0.137555371728
1	2354	328.555247905359	0.137555371728
1	2359	328.997213637508	0.137555371728
1	2364	329.677663974251	0.137555371728
1	2369	330.835934566784	0.137555371728
1	2374	332.204687951582	0.137555371728
1	2379	333.497507104724	0.137555371728
1	2384	334.805758711611	0.137555371728
1	2389	336.091269072361	0.137555371728
1	2394	336.626331869817	0.137555371728
1	2399	336.950070789843	0.137555371728
1	2404	337.517457944835	0.137555371728
1	2409	337.669861821364	0.137555371728
1	2414	337.899080762416	0.137555371728
1	2419	338.110462155728	0.137555371728
1	2424	339.466940775839	0.137555371728
1	2429	340.752178953514	0.137555371728
1	2434	341.072743505521	0.137555371728
1	2441	341.224999422347	0.137555371728
1	2444	341.362554794075	0.193494532439
1	2449	341.517078925304	0.137555371728
1	2456	342.014626850519	0.137555371728
1	2459	342.152182222247	0.194669751789
1	2464	342.991615125598	0.137555371728
1	2469	343.224649186674	0.137555371728
1	2474	343.957797211665	0.137555371728
1	2479	344.340378541131	0.137555371728
1	2484	344.946950838515	0.137555371728
1	2489	346.634728874324	0.137555371728
1	2494	347.027541373068	0.137555371728
1	2499	348.782666323242	0.137555371728
1	2504	349.520981974578	0.137555371728
1	2509	350.05253756303	0.137555371728
1	2515	350.352923509615	0.139018967337
1	2520	350.669617244226	0.137555371728
1	2527	351.524185651274	0.137555371728
1	2532	351.661741023002	0.192649094196
1	2535	351.79929639473	0.245157689169
1	2540	352.081527049302	0.137555371728
1	2545	354.280333461763	0.137555371728
1	2550	355.802299550545	0.137555371728
1	2555	359.819421841109	0.137555371728
1	2560	359.968748686125	0.137555371728
1	2565	361.606016786443	0.137555371728
1	2570	361.769876669726	0.137555371728
1	2575	363.624228904942	0.137555371728
1	2580	365.089914610413	0.137555371728
1	2587	365.616110212153	0.137555371728
1	2590	365.753665583881	0.230467880963
1	2597	366.681190644245	0.137555371728
1	2600	366.818746015973	0.270867286981
1	2605	368.659150788115	0.137555371728
1	2610	371.146297435275	0.137555371728
1	2615	372.470938548182	0.137555371728
1	2620	373.99968506279	0.137555371728
1	2625	374.835817705487	0.137555371728
1	2630	375.078187019779	0.137555371728
1	2637	375.336231415671	0.137555371728
1	2640	375.473786787399	0.238528167367
1	2645	375.827679865087	0.137555371728
1	2650	376.249138275093	0.137555371728
1	2655	376.542528401886	0.137555371728
1	2660	376.898353729808	0.137555371728
1	2665	379.518655283899	0.137555371728
1	2670	379.778120366825	0.137555371728
1	2675	380.31026411361	0.137555371728
1	2682	380.914244978372	0.137555371728
1	2687	381.0518003501	0.139990016573
1	2690	381.189355721828	0.221666414051
1	2695	381.994338235797	0.137555371728
1	2700	382.67008716507	0.137555371728
1	2705	383.023300919119	0.137555371728
1	2710	384.043133526779	0.137555371728
1	2715	384.979966897806	0.137555371728
1	2720	387.996816970059	0.137555371728
1	2725	388.274497978978	0.137555371728
1	2732	388.453580173252	0.137555371728
1	2735	388.59113554498	0.187020171804
1	2740	388.831942561527	0.137555371728
1	2745	389.14514576033	0.137555371728
1	2750	389.821114645972	0.137555371728
1	2757	390.16950915593	0.137555371728
1	2760	390.307064527658	0.157850460584
1	2766	390.906803734805	0.137555371728
1	2771	391.534984510889	0.137555371728
1	2776	392.052388350751	0.137555371728
1	2781	393.262936649311	0.137555371728
1	2786	393.649979384951	0.137555371728
1	2791	394.063914801862	0.137555371728
1	2796	394.39584686147	0.137555371728
1	2801	396.028795246668	0.137555371728
1	2808	397.244924362499	0.137555371728
1	2811	397.382479734227	0.163330983731
1	2816	397.681296121923	0.137555371728
1	2823	398.267099541182	0.137555371728
1	2826	398.40465491291	0.141622914225
1	2831	399.421062851388	0.137555371728
1	2836	399.668931887908	0.137555371728
1	2841	399.89234644454	0.137555371728
1	2846	402.065150421871	0.137555371728
1	2855	402.66230163665	0.137555371728
1	2860	402.799857008378	0.252145533057
1	2863	402.937412380106	0.30113100104
1	2866	403.074967751834	0.289980781525
1	2871	403.285145812148	0.137555371728
1	2876	404.081548059455	0.137555371728
1	2881	404.478573197948	0.137555371728
1	2886	407.165252660595	0.137555371728
1	2893	407.507450889519	0.137555371728
1	2896	407.645006261247	0.159366047848
1	2903	407.840266561175	0.137555371728
1	2910	407.977821932903	0.219596397084
1	2913	408.115377304631	0.212424973087
1	2916	408.252932676359	0.287002429531
1	2921	408.737374344315	0.137555371728
1	2926	410.78994073135	0.137555371728
1	2931	412.008759790122	0.137555371728
1	2936	412.748979865325	0.137555371728
1	2943	414.073327698071	0.137555371728
1	2946	414.210883069799	0.239297253111
1	2951	414.36785583044	0.137555371728
1	2958	415.775545643002	0.137555371728
1	2961	415.91310101473	0.177043499755
1	2966	416.795116203231	0.137555371728
1	2971	417.250956800098	0.137555371728
1	2976	417.509522168969	0.137555371728
1	2983	419.744767752837	0.137555371728
1	2986	419.882323124565	0.239791394115
1	2991	420.300890451931	0.137555371728
1	2998	421.07909533566	0.137555371728
1	3001	421.216650707388	0.216365109907
1	3006	421.695035719899	0.137555371728
1	3011	422.030396555582	0.137555371728
1	3017	423.633941358252	0.137555371728
1	3022	424.075882179101	0.137555371728
1	3027	426.208920099292	0.137555371728
1	3032	427.926811935161	0.137555371728
1	3037	429.617548810907	0.137555371728
1	3042	429.771560000957	0.137555371728
1	3047	431.542258987681	0.137555371728
1	3052	432.42508695729	0.137555371728
1	3057	433.527493028743	0.137555371728
1	3062	434.476131641733	0.137555371728
1	3067	436.036713013143	0.137555371728
1	3072	436.299085716497	0.137555371728
1	3079	436.534678444857	0.137555371728
1	3084	436.672233816585	0.221558695557
1	3087	436.809789188313	0.242473331829
1	3094	437.071592622373	0.137555371728
1	3099	437.209147994101	0.24630617612
1	3102	437.346703365829	0.162470793275
1	3107	437.555509390093	0.137555371728
1	3112	437.868648376962	0.137555371728
1	3119	438.712438710133	0.137555371728
1	3122	438.849994081861	0.160793129699
1	3127	439.070774110684	0.137555371728
1	3132	440.263710147226	0.137555371728
1	3137	440.911187658229	0.137555371728
1	3142	441.942063417322	0.137555371728
1	3147	442.158302038924	0.137555371728
1	3152	442.364747866861	0.137555371728
1	3159	443.597859384323	0.137555371728
1	3164	443.735414756051	0.195823223897
1	3167	443.872970127779	0.196379232584
1	3172	444.332479136502	0.137555371728
1	3177	444.971478603932	0.137555371728
1	3182	445.139870472909	0.137555371728
1	3187	446.013651680778	0.137555371728
1	3192	446.603523130678	0.137555371728
1	3197	449.127251571692	0.137555371728
1	3202	449.318058171436	0.137555371728
1	3207	450.120764505806	0.137555371728
1	3212	450.632529741875	0.137555371728
1	3217	451.45285702442	0.137555371728
1	3222	451.797307174443	0.137555371728
1	3227	452.075845022193	0.137555371728
1	3232	452.781936675058	0.137555371728
1	3239	453.397887935723	0.137555371728
1	3246	453.535443307451	0.239558673519
1	3249	453.672998679179	0.236605548046
1	3252	453.810554050907	0.294903784544
1	3257	455.688934789371	0.137555371728
1	3262	455.871663722052	0.137555371728
1	3268	456.435128145927	0.137555371728
1	3275	457.477496255908	0.137555371728
1	3278	457.615051627636	0.138279355637
1	3283	458.078696879329	0.137555371728
1	3288	458.750271277884	0.137555371728
1	3293	458.996509848015	0.137555371728
1	3298	460.321143597091	0.137555371728
1	3303	460.85989374492	0.137555371728
1	3308	461.655153592027	0.137555371728
1	3313	461.892179473238	0.137555371728
1	3318	462.264612099418	0.137555371728
1	3323	463.59889543054	0.137555371728
1	3328	463.965769452363	0.137555371728
1	3333	464.145817522926	0.137555371728
1	3338	464.952462876256	0.137555371728
1	3345	465.399271550779	0.137555371728
1	3348	465.536826922507	0.260465874414
1	3353	465.815520434575	0.137555371728
1	3358	465.970672261384	0.137555371728
1	3363	467.615312315353	0.137555371728
1	3368	469.349775301618	0.137555371728
1	3373	469.852687124564	0.137555371728
1	3378	470.074662724292	0.137555371728
1	3385	471.404715321888	0.137555371728
1	3388	471.542270693616	0.267290525062
1	3393	472.78756117504	0.137555371728
1	3398	473.554820522541	0.137555371728
1	3403	474.137927675037	0.137555371728
1	3408	474.852140339165	0.137555371728
1	3413	476.137325406871	0.137555371728
1	3418	476.80772678163	0.137555371728
1	3423	477.480528264081	0.137555371728
1	3428	477.705639249049	0.137555371728
1	3433	480.278409733195	0.137555371728
1	3438	481.38657022153	0.137555371728
1	3443	482.15376596149	0.137555371728
1	3448	483.291936304405	0.137555371728
1	3453	484.3710884464	0.137555371728
1	3458	485.864052506752	0.137555371728
1	3463	486.320214752762	0.137555371728
1	3468	486.544785511502	0.137555371728
1	3473	487.47055631801	0.137555371728
1	3480	488.540512175625	0.137555371728
1	3483	488.678067547353	0.171492094867
1	3488	488.875124683981	0.137555371728
1	3495	489.318212253357	0.137555371728
1	3500	489.455767625085	0.153591195894
1	3503	489.593322996813	0.149365870301
1	3508	490.142517943851	0.137555371728
1	3517	490.878780385267	0.137555371728
1	3521	491.179166331852	0.400621445672
1	3524	491.31672170358	0.50344824506
1	3529	491.529221941247	0.137555371728
1	3534	492.063498109879	0.137555371728
1	3539	492.466062140739	0.137555371728
1	3544	493.182361479868	0.137555371728
1	3549	493.394782081297	0.137555371728
1	3554	493.69849999993	0.137555371728
1	3561	494.303022923772	0.137555371728
1	3564	494.4405782955	0.188873096433
1	3569	495.388629435782	0.137555371728
1	3574	495.839834285722	0.137555371728
1	3579	497.567822448042	0.137555371728
1	3584	497.908928246682	0.137555371728
1	3589	500.421521597871	0.137555371728
1	3594	500.687541689939	0.137555371728
1	3599	500.916443838616	0.137555371728
1	3604	501.117987439325	0.137555371728
1	3609	503.043247250708	0.137555371728
1	3614	503.360497301274	0.137555371728
1	3619	506.162018018546	0.137555371728
1	3624	506.637908778069	0.137555371728
1	3629	506.965262757486	0.137555371728
1	3634	508.074573464069	0.137555371728
1	3639	509.095570891608	0.137555371728
1	3644	509.478802087572	0.137555371728
1	3651	510.083051558778	0.137555371728
1	3654	510.220606930506	0.202706531319
1	3661	510.770492419711	0.137555371728
1	3664	510.908047791439	0.21832681904
1	3669	511.671337466204	0.137555371728
1	3674	511.87790544549	0.137555371728
1	3681	512.827469573546	0.137555371728
1	3684	512.965024945274	0.250938099533
1	3689	513.881906382753	0.137555371728
1	3694	515.315176982974	0.137555371728
1	3699	517.099966187078	0.137555371728
1	3704	517.392493549878	0.137555371728
1	3709	518.082204979664	0.137555371728
1	3716	518.708292432593	0.137555371728
1	3719	518.845847804321	0.180701332609
1	3724	519.049606059907	0.137555371728
1	3729	519.65999329395	0.137555371728
1	3734	520.442294448905	0.137555371728
1	3739	521.075380422442	0.137555371728
1	3744	521.520472322883	0.137555371728
1	3751	522.189078597196	0.137555371728
1	3756	522.326633968924	0.144644859796
1	3759	522.464189340652	0.254400211478
1	3764	523.316103815437	0.137555371728
1	3770	524.32917699689	0.137555371728
1	3775	525.127284746681	0.137555371728
1	3780	526.375671286154	0.137555371728
1	3785	527.149980882824	0.137555371728
1	3790	528.648934676134	0.137555371728
1	3795	530.05470748614	0.137555371728
1	3804	531.237849074301	0.137555371728
1	3807	531.375404446029	0.188949955661
1	3810	531.512959817757	0.319807363635
1	3815	532.334365943726	0.137555371728
1	3820	532.75948891544	0.137555371728
1	3825	534.045566277016	0.137555371728
1	3832	534.446038971652	0.137555371728
1	3835	534.58359434338	0.217802841513
1	3842	535.878235740859	0.137555371728
1	3845	536.015791112587	0.177283891799
1	3850	536.181011483337	0.137555371728
1	3857	537.294567557493	0.137555371728
1	3860	537.432122929221	0.224891980035
1	3865	537.67692388763	0.137555371728
1	3870	538.394474663355	0.137555371728
1	3875	539.95061362544	0.137555371728
1	3884	540.155521607335	0.137555371728
1	3887	540.293076979063	0.272218790014
1	3890	540.430632350791	0.300716956861
1	3895	541.35181646519	0.137555371728
1	3900	542.300979628143	0.137555371728
1	3905	544.081893853117	0.137555371728
1	3912	545.794466071959	0.137555371728
1	3915	545.932021443687	0.162658371965
1	3920	546.368662664562	0.137555371728
1	3925	546.677666414604	0.137555371728
1	3930	547.377882734519	0.137555371728
1	3939	548.351389667213	0.137555371728
1	3942	548.488945038941	0.260847094319
1	3945	548.626500410669	0.364874974581
1	3950	549.514039256155	0.137555371728
1	3957	549.983142897491	0.137555371728
1	3960	550.120698269219	0.270383955409
1	3965	550.594316567825	0.137555371728
1	3970	550.741791024853	0.137555371728
1	3977	551.435506533325	0.137555371728
1	3980	551.573061905053	0.240916171171
1	3985	552.386473922732	0.137555371728
1	3990	553.513798233213	0.137555371728
1	3995	556.1568287079	0.137555371728
1	4000	556.438640304586	0.137555371728
1	4005	556.858616154916	0.137555371728
1	4010	557.13421363215	0.137555371728
1	4017	557.77854315113	0.137555371728
1	4021	558.078929097715	0.42735620268
1	4026	558.423623198245	0.137555371728
1	4031	559.179358421211	0.137555371728
1	4036	559.483557717654	0.137555371728
1	4041	560.965964366685	0.137555371728
1	4046	561.141631109113	0.137555371728
1	4051	562.445016465386	0.137555371728
1	4056	562.748678142936	0.137555371728
1	4061	563.851828666605	0.137555371728
1	4068	564.801994215266	0.137555371728
1	4073	564.939549586994	0.207181870931
1	4076	565.077104958722	0.181354522804
1	4083	565.349936924448	0.137555371728
1	4086	565.487492296176	0.178672577102
1	4091	566.291398614976	0.137555371728
1	4096	567.008400507039	0.137555371728
1	4101	567.637684842286	0.137555371728
1	4106	569.106779383828	0.137555371728
1	4111	570.440524196656	0.137555371728
1	4116	572.801872235115	0.137555371728
1	4121	573.181647927663	0.137555371728
1	4126	573.500554734191	0.137555371728
1	4131	574.01111021791	0.137555371728
1	4136	574.199509068745	0.137555371728
1	4141	574.530127906704	0.137555371728
1	4146	575.263927951559	0.137555371728
1	4151	575.983537011902	0.137555371728
1	4156	576.522792728449	0.137555371728
1	4161	578.064973587134	0.137555371728
1	4166	578.973698278902	0.137555371728
1	4171	579.201387958473	0.137555371728
1	4176	580.080926478147	0.137555371728
1	4181	582.430254868232	0.137555371728
1	4186	583.073704221244	0.137555371728
1	4191	583.709571215531	0.137555371728
1	4198	584.479909081115	0.137555371728
1	4201	584.617464452843	0.253719776635
1	4208	585.225835793537	0.137555371728
1	4215	585.363391165265	0.203357567661
1	4218	585.500946536993	0.189008810755
1	4221	585.638501908721	0.317785050414
1	4226	585.971375052905	0.137555371728
1	4231	587.803288436363	0.137555371728
1	4238	588.537763596985	0.137555371728
1	4241	588.675318968713	0.188929527685
1	4246	589.053087333065	0.137555371728
1	4253	589.349809513681	0.137555371728
1	4256	589.487364885409	0.180863732349
1	4261	590.32507205663	0.137555371728
1	4266	590.465613240814	0.137555371728
1	4272	591.524446456491	0.137555371728
1	4277	592.694101356097	0.137555371728
1	4282	593.844834745433	0.137555371728
1	4287	593.989579537274	0.137555371728
1	4294	594.498371832844	0.137555371728
1	4299	594.635927204572	0.21987239374
1	4302	594.7734825763	0.273940453164
1	4307	596.154754832437	0.137555371728
1	4312	597.48144496932	0.137555371728
1	4317	597.732815589142	0.137555371728
1	4322	598.035945774733	0.137555371728
1	4327	598.929872181373	0.137555371728
1	4332	599.137126527752	0.137555371728
1	4339	599.758231667765	0.137555371728
1	4342	599.895787039493	0.160538800623
1	4347	601.406912116252	0.137555371728
1	4352	601.950693497617	0.137555371728
1	4357	602.140929127898	0.137555371728
1	4364	602.288438938175	0.137555371728
1	4367	602.425994309903	0.266628205282
1	4372	602.668864584505	0.137555371728
1	4377	602.941086567453	0.137555371728
1	4382	604.26658101538	0.137555371728
1	4387	605.469541127685	0.137555371728
1	4392	605.915937714861	0.137555371728
1	4397	606.285379676342	0.137555371728
1	4402	606.553707869795	0.137555371728
1	4407	606.953630617983	0.137555371728
1	4414	607.135336972239	0.137555371728
1	4417	607.272892343967	0.254583785482
1	4422	608.017076400004	0.137555371728
1	4427	608.217902831296	0.137555371728
1	4432	609.930677091162	0.137555371728
1	4437	610.544371368856	0.137555371728
1	4442	611.781011524637	0.137555371728
1	4447	612.217588143934	0.137555371728
1	4452	612.58280637947	0.137555371728
1	4457	614.415612076171	0.137555371728
1	4462	614.591616014779	0.137555371728
1	4467	615.377948297679	0.137555371728
1	4472	615.70411626264	0.137555371728
1	4477	616.448023007734	0.137555371728
1	4482	617.518387398878	0.137555371728
1	4487	618.082874778378	0.137555371728
1	4492	618.892251139374	0.137555371728
1	4497	619.805354014203	0.137555371728
1	4502	621.125583970406	0.137555371728
1	4509	621.657337730944	0.137555371728
1	4512	621.794893102672	0.23963849866
1	4517	622.850344102858	0.137555371728
1	4527	623.399941937627	0.137555371728
1	4530	623.537497309355	0.263576383642
1	4533	623.675052681083	0.297440628519
1	4538	625.288461778674	0.137555371728
1	4543	626.653580437008	0.137555371728
1	4548	627.00415675813	0.137555371728
1	4553	627.313318854311	0.137555371728
1	4558	628.24620693651	0.137555371728
1	4563	628.609908272809	0.137555371728
1	4572	630.409446430845	0.137555371728
1	4575	630.547001802573	0.25167977133
1	4578	630.684557174301	0.287706365782
1	4583	631.33384297115	0.137555371728
1	4590	633.706613546357	0.137555371728
1	4593	633.844168918085	0.238995770237
1	4598	634.814491992603	0.137555371728
1	4605	636.397714678332	0.137555371728
1	4610	636.53527005006	0.261659086575
1	4615	636.672825421788	0.236132128643
1	4618	636.810380793516	0.233147519876
1	4623	638.147067788499	0.137555371728
1	4628	638.506379679369	0.137555371728
1	4633	639.922674954533	0.137555371728
1	4638	640.433975284987	0.137555371728
1	4643	641.009813446048	0.137555371728
1	4648	642.300769085348	0.137555371728
1	4655	642.901486915901	0.137555371728
1	4660	643.039042287629	0.229309275173
1	4665	643.176597659357	0.139756429791
1	4668	643.314153031085	0.217897460297
1	4675	643.608790901368	0.137555371728
1	4678	643.746346273096	0.213400558101
1	4683	644.191549344545	0.137555371728
1	4688	645.025650945324	0.137555371728
1	4693	646.94881512768	0.137555371728
1	4700	647.987638475412	0.137555371728
1	4705	648.12519384714	0.258063944306
1	4708	648.262749218868	0.150837031515
1	4713	648.712092448554	0.137555371728
1	4718	648.864455533107	0.137555371728
1	4723	649.763256022324	0.137555371728
1	4728	650.741311052934	0.137555371728
1	4733	651.548358301433	0.137555371728
1	4740	651.946722187032	0.137555371728
1	4743	652.08427755876	0.167239650725
1	4748	652.315636343277	0.137555371728
1	4755	653.498922837863	0.137555371728
1	4758	653.636478209591	0.223995935697
1	4763	655.75025327455	0.137555371728
1	4770	657.092391770187	0.137555371728
1	4774	657.392777716772	0.387279692751
1	4779	657.649083310192	0.137555371728
1	4784	659.236660568199	0.137555371728
1	4791	659.380654122897	0.137555371728
1	4796	659.518209494625	0.186484785946
1	4801	659.655764866353	0.272815785048
1	4804	659.793320238081	0.158300506866
1	4811	660.600954645051	0.137555371728
1	4814	660.738510016779	0.24691250459
1	4819	663.559130048292	0.137555371728
1	4826	664.912138850802	0.137555371728
1	4829	665.04969422253	0.159883239025
1	4834	667.922890886001	0.137555371728
1	4839	670.809214133763	0.137555371728
1	4844	672.354140164048	0.137555371728
1	4849	673.145308779291	0.137555371728
1	4854	673.295862758894	0.137555371728
1	4859	674.30867244747	0.137555371728
1	4866	675.999555430604	0.137555371728
1	4869	676.137110802332	0.214319399518
1	4874	676.318994665894	0.137555371728
1	4879	676.769339670558	0.137555371728
1	4884	677.854956033666	0.137555371728
1	4891	679.419198380814	0.137555371728
1	4894	679.556753752542	0.19934685657
1	4899	680.670826979173	0.137555371728
1	4904	682.201346058626	0.137555371728
1	4909	682.54842395133	0.137555371728
1	4914	684.801992668403	0.137555371728
1	4919	684.983842455908	0.137555371728
1	4926	685.735898892982	0.137555371728
1	4929	685.87345426471	0.187716890446
1	4934	686.081276322778	0.137555371728
1	4939	687.788123700719	0.137555371728
1	4944	688.124533970333	0.137555371728
1	4949	689.615095852284	0.137555371728
1	4954	690.200379303653	0.137555371728
1	4959	690.652033611291	0.137555371728
1	4966	692.618876193967	0.137555371728
1	4969	692.756431565695	0.249161953616
1	4974	693.201217411966	0.137555371728
1	4979	693.470897561415	0.137555371728
1	4984	695.08569353035	0.137555371728
1	4989	695.602348414209	0.137555371728
1	4994	696.155828022346	0.137555371728
1	5001	696.388538713096	0.137555371728
1	5004	696.526094084824	0.179593765299
1	5009	696.683324585798	0.137555371728
1	5014	697.545543548616	0.137555371728
1	5019	698.422469300034	0.137555371728
1	5025	699.062176270318	0.137555371728
1	5034	700.016396229087	0.137555371728
1	5041	700.153951600815	0.242569582769
1	5044	700.291506972543	0.370096084307
1	5047	700.429062344271	0.371795183551
1	5050	700.566617715999	0.499025792713
1	5055	701.894544496373	0.137555371728
1	5062	702.133678345915	0.137555371728
1	5067	702.271233717643	0.13808957584
1	5072	702.408789089371	0.167391643762
1	5075	702.546344461099	0.265397360817
1	5080	703.063586883025	0.137555371728
1	5085	703.228209791339	0.137555371728
1	5090	704.811949435746	0.137555371728
1	5095	705.241525573786	0.137555371728
1	5100	705.570492547457	0.137555371728
1	5107	706.271388056035	0.137555371728
1	5110	706.408943427763	0.212042671861
1	5115	707.766724328987	0.137555371728
1	5120	709.297024823684	0.137555371728
1	5127	709.610638275305	0.137555371728
1	5130	709.748193647033	0.251168027571
1	5135	709.964722696621	0.137555371728
1	5140	710.833526487609	0.137555371728
1	5145	711.388773549488	0.137555371728
1	5150	712.453476775489	0.137555371728
1	5155	714.581115837402	0.137555371728
1	5160	714.872384063712	0.137555371728
1	5169	715.8899804563	0.137555371728
1	5172	716.027535828028	0.228515371818
1	5175	716.165091199756	0.332863575425
1	5180	717.570291753009	0.137555371728
1	5185	718.261828055449	0.137555371728
1	5192	718.523237167884	0.137555371728
1	5195	718.660792539612	0.148180873777
1	5202	719.370031884923	0.137555371728
1	5205	719.507587256651	0.147884551931
1	5212	719.896334970357	0.137555371728
1	5215	720.033890342085	0.147934032229
1	5220	720.200443700309	0.137555371728
1	5225	720.988592576785	0.137555371728
1	5230	721.426772265332	0.137555371728
1	5235	723.868330356935	0.137555371728
1	5240	724.217321743729	0.137555371728
1	5245	724.632298811199	0.137555371728
1	5250	725.633700809825	0.137555371728
1	5255	726.041839881898	0.137555371728
1	5260	726.413778460991	0.137555371728
1	5265	727.486092076184	0.137555371728
1	5270	728.214498686065	0.137555371728
1	5276	729.056208157519	0.137555371728
1	5283	731.236349847088	0.137555371728
1	5286	731.373905218816	0.255603897227
1	5291	731.624037690043	0.137555371728
1	5298	731.819947296469	0.137555371728
1	5301	731.957502668197	0.260035885332
1	5308	733.926305602481	0.137555371728
1	5311	734.063860974209	0.217468738681
1	5316	736.640624313323	0.137555371728
1	5321	737.570757214977	0.137555371728
1	5326	737.759320915871	0.137555371728
1	5331	740.218217702312	0.137555371728
1	5336	740.669619796745	0.137555371728
1	5341	741.175462242618	0.137555371728
1	5346	741.684532443581	0.137555371728
1	5351	742.202867762067	0.137555371728
1	5356	743.672747961408	0.137555371728
1	5361	744.601183263382	0.137555371728
1	5366	744.782436091337	0.137555371728
1	5371	745.285796101906	0.137555371728
1	5376	745.511019352655	0.137555371728
1	5381	746.542270836089	0.137555371728
1	5386	746.791316619797	0.137555371728
1	5393	747.319162936954	0.137555371728
1	5396	747.456718308682	0.21372557406
1	5401	747.920474886869	0.137555371728
1	5406	748.281898124383	0.137555371728
1	5411	749.153682607915	0.137555371728
1	5416	750.610248939611	0.137555371728
1	5421	751.543589502033	0.137555371728
1	5426	752.101927713956	0.137555371728
1	5431	752.26066649516	0.137555371728
1	5438	752.424915867955	0.137555371728
1	5441	752.562471239683	0.254157251472
1	5446	752.865382505322	0.137555371728
1	5451	753.577135114784	0.137555371728
1	5456	754.4280639227	0.137555371728
1	5461	754.693863020517	0.137555371728
1	5468	754.977709466606	0.137555371728
1	5471	755.115264838334	0.15859005366
1	5476	755.609962962205	0.137555371728
1	5483	756.37707908473	0.137555371728
1	5486	756.514634456458	0.209802512587
1	5493	757.465804294087	0.137555371728
1	5496	757.603359665815	0.204123227781
1	5501	758.349881849696	0.137555371728
1	5508	759.424710699941	0.137555371728
1	5513	759.562266071669	0.174305820286
1	5516	759.699821443397	0.191647766123
1	5521	759.937651258821	0.137555371728
1	5527	760.749114369141	0.137555371728
1	5532	762.5313681956	0.137555371728
1	5539	762.751160004108	0.137555371728
1	5544	762.888715375836	0.22804203713
1	5547	763.026270747564	0.204578933274
1	5552	763.211382662195	0.137555371728
1	5557	763.654140710346	0.137555371728
1	5562	764.199877732138	0.137555371728
1	5567	764.796814603088	0.137555371728
1	5572	765.002597692705	0.137555371728
1	5577	765.892136074287	0.137555371728
1	5582	768.296411477969	0.137555371728
1	5589	768.745813364863	0.137555371728
1	5594	768.883368736591	0.138182363472
1	5597	769.020924108319	0.249041791372
1	5604	769.268461185937	0.137555371728
1	5607	769.406016557665	0.249185608577
1	5612	770.235119087883	0.137555371728
1	5617	772.055889855521	0.137555371728
1	5622	772.415460513382	0.137555371728
1	5627	773.039983765244	0.137555371728
1	5632	774.327262838276	0.137555371728
1	5637	774.866879844025	0.137555371728
1	5642	775.006986727517	0.137555371728
1	5647	776.177599263285	0.137555371728
1	5654	776.677217042499	0.137555371728
1	5657	776.814772414227	0.256169284554
1	5662	777.668526301505	0.137555371728
1	5667	778.009830052145	0.137555371728
1	5674	778.792943446485	0.137555371728
1	5677	778.930498818213	0.25136452294
1	5682	779.290492693735	0.137555371728
1	5687	780.003184265602	0.137555371728
1	5692	780.768111802743	0.137555371728
1	5697	782.510796507958	0.137555371728
1	5702	785.234076046729	0.137555371728
1	5707	786.26245291947	0.137555371728
1	5712	786.4351611606	0.137555371728
1	5717	787.970802619005	0.137555371728
1	5722	789.055166792141	0.137555371728
1	5727	789.808734374356	0.137555371728
1	5732	790.064499100283	0.137555371728
1	5737	790.473353507004	0.137555371728
1	5744	791.25984718566	0.137555371728
1	5747	791.397402557388	0.145821088445
1	5754	791.734314410861	0.137555371728
1	5757	791.871869782589	0.165757544004
1	5762	792.314679224486	0.137555371728
1	5767	792.623385639727	0.137555371728
1	5772	794.947074713851	0.137555371728
1	5782	795.720736656249	0.137555371728
1	5785	795.858292027977	0.187505299329
1	5788	795.995847399705	0.288835704246
1	5793	797.090082371224	0.137555371728
1	5798	800.021605214468	0.137555371728
1	5803	800.549996947698	0.137555371728
1	5808	800.695694693314	0.137555371728
1	5813	800.870611489847	0.137555371728
1	5818	801.532493162873	0.137555371728
1	5823	804.13988360728	0.137555371728
1	5828	804.399351508831	0.137555371728
1	5833	804.889015361871	0.137555371728
1	5838	806.028636728168	0.137555371728
1	5843	806.457256692842	0.137555371728
1	5848	806.733013902813	0.137555371728
1	5853	808.211863219805	0.137555371728
1	5858	808.407239727338	0.137555371728
1	5863	809.834269901868	0.137555371728
1	5868	810.402255356509	0.137555371728
1	5875	811.106639575419	0.137555371728
1	5878	811.244194947147	0.240919331209
1	5883	812.200222075412	0.137555371728
1	5888	812.775456564852	0.137555371728
1	5893	813.903610521941	0.137555371728
1	5898	814.228608536404	0.137555371728
1	5903	814.808656867175	0.137555371728
1	5908	817.75779051001	0.137555371728
1	5913	818.825940531421	0.137555371728
1	5918	821.262845454152	0.137555371728
1	5923	823.502935668004	0.137555371728
1	5928	823.696974005225	0.137555371728
1	5933	823.937313936879	0.137555371728
1	5938	824.653265243238	0.137555371728
1	5943	825.864029943383	0.137555371728
1	5948	826.283411292275	0.137555371728
1	5953	826.51071250069	0.137555371728
1	5958	827.418754169786	0.137555371728
1	5963	827.776368557944	0.137555371728
1	5968	827.918332635166	0.137555371728
1	5977	828.339233109813	0.137555371728
1	5980	828.476788481541	0.261473151572
1	5983	828.614343853269	0.300537504347
1	5988	830.313083434098	0.137555371728
1	5995	831.578124456848	0.137555371728
1	6002	831.715679828576	0.164684025129
1	6007	831.853235200304	0.262677468893
1	6010	831.990790572032	0.385696888578
1	6013	832.12834594376	0.34524944759
1	6018	832.346264550783	0.137555371728
1	6023	833.854950990109	0.137555371728
1	6029	835.895145172934	0.137555371728
1	6034	836.822922889991	0.137555371728
1	6039	836.97203745407	0.137555371728
1	6046	837.305073030608	0.137555371728
1	6049	837.442628402336	0.170682832231
1	6054	841.084498082168	0.137555371728
1	6059	844.458672902303	0.137555371728
1	6064	845.212980851113	0.137555371728
1	6069	845.632744973028	0.137555371728
1	6074	846.03764132635	0.137555371728
1	6079	846.880487267001	0.137555371728
1	6086	848.086271742113	0.137555371728
1	6089	848.223827113841	0.272391316499
1	6094	849.417718426763	0.137555371728
1	6101	849.679049172502	0.137555371728
1	6104	849.81660454423	0.151713706069
1	6109	850.8839270232	0.137555371728
1	6114	851.703909592281	0.137555371728
1	6119	852.560513417105	0.137555371728
1	6124	852.743211679543	0.137555371728
1	6129	854.84121821191	0.137555371728
1	6134	855.636974369472	0.137555371728
1	6139	856.606720432042	0.137555371728
1	6144	857.740614728619	0.137555371728
1	6151	859.226486335612	0.137555371728
1	6154	859.36404170734	0.241380478396
1	6159	860.024775487217	0.137555371728
1	6164	860.177164259422	0.137555371728
1	6169	860.915069055401	0.137555371728
1	6174	861.512722624393	0.137555371728
1	6179	862.624653575001	0.137555371728
1	6184	863.558898497203	0.137555371728
1	6191	863.927921542584	0.137555371728
1	6194	864.065476914312	0.188523731214
1	6199	864.21591475473	0.137555371728
1	6204	865.435833343811	0.137555371728
1	6211	866.125960733362	0.137555371728
1	6214	866.26351610509	0.141933070374
1	6219	866.561638094659	0.137555371728
1	6224	867.024046522847	0.137555371728
1	6229	869.779001228485	0.137555371728
1	6234	870.29533125629	0.137555371728
1	6239	870.694409044621	0.137555371728
1	6244	871.900834693113	0.137555371728
1	6251	873.484149103028	0.137555371728
1	6254	873.621704474756	0.227340131395
1	6259	873.843246109506	0.137555371728
1	6264	874.66797386599	0.137555371728
1	6269	876.06174213785	0.137555371728
1	6274	877.717354075523	0.137555371728
1	6280	878.019057051884	0.137555371728
1	6285	880.744247119589	0.137555371728
1	6290	880.963105234453	0.137555371728
1	6295	881.503716414989	0.137555371728
1	6300	882.211185558208	0.137555371728
1	6305	882.800443780799	0.137555371728
1	6310	884.243307451796	0.137555371728
1	6315	885.161968546968	0.137555371728
1	6322	886.793104360769	0.137555371728
1	6325	886.930659732497	0.2264503806
1	6330	888.792809843628	0.137555371728
1	6335	888.984647087078	0.137555371728
1	6340	889.370421432803	0.137555371728
1	6345	889.804169050527	0.137555371728
1	6350	890.10640212264	0.137555371728
1	6355	890.698825733885	0.137555371728
1	6360	891.110577876983	0.137555371728
1	6367	895.084357151132	0.137555371728
1	6370	895.22191252286	0.254887711588
1	6375	896.705899164475	0.137555371728
1	6380	897.403987496972	0.137555371728
1	6385	897.557121147897	0.137555371728
1	6390	898.090956847609	0.137555371728
1	6395	899.012692764512	0.137555371728
1	6404	899.255876589309	0.137555371728
1	6407	899.393431961037	0.159770201348
1	6410	899.530987332765	0.281405431661
1	6417	900.083444648523	0.137555371728
1	6420	900.221000020251	0.216469418207
1	6425	902.196777325181	0.137555371728
1	6432	903.057400513433	0.137555371728
1	6435	903.194955885161	0.195004218136
1	6440	904.483301329461	0.137555371728
1	6445	904.804813082004	0.137555371728
1	6450	905.379788345046	0.137555371728
1	6457	905.774736764307	0.137555371728
1	6462	905.912292136035	0.164592440795
1	6465	906.049847507763	0.139665010969
1	6470	909.002004377372	0.137555371728
1	6475	909.543036711362	0.137555371728
1	6480	910.048550930017	0.137555371728
1	6485	910.423740481062	0.137555371728
1	6490	912.152428195578	0.137555371728
1	6495	915.379288013071	0.137555371728
1	6502	916.434193997179	0.137555371728
1	6505	916.571749368907	0.217636716251
1	6510	916.820375438058	0.137555371728
1	6519	917.027088756789	0.137555371728
1	6522	917.164644128517	0.204469766055
1	6525	917.302199500245	0.339802441691
1	6531	918.551469998185	0.137555371728
1	6536	919.88287734282	0.137555371728
1	6541	920.948449615906	0.137555371728
1	6546	921.223575627682	0.137555371728
1	6553	922.48820315769	0.137555371728
1	6556	922.625758529418	0.159520440135
1	6561	922.79762881487	0.137555371728
1	6568	923.471765312558	0.137555371728
1	6571	923.609320684286	0.189255830704
1	6576	925.962541466405	0.137555371728
1	6581	926.158051972165	0.137555371728
1	6586	926.775641460282	0.137555371728
1	6591	927.602104236923	0.137555371728
1	6596	928.284873466718	0.137555371728
1	6601	929.631136942354	0.137555371728
1	6606	929.912991670994	0.137555371728
1	6611	931.560178424126	0.137555371728
1	6620	933.735667354919	0.137555371728
1	6625	933.873222726647	0.162230075962
1	6628	934.010778098375	0.289735252093
1	6631	934.148333470103	0.275943744568
1	6636	935.033606453003	0.137555371728
1	6641	935.729432779788	0.137555371728
1	6646	935.924384620163	0.137555371728
1	6653	936.488368176115	0.137555371728
1	6656	936.625923547843	0.245782446637
1	6661	936.770368167619	0.137555371728
1	6668	937.278560808618	0.137555371728
1	6671	937.416116180346	0.195118273738
1	6676	937.853439181675	0.137555371728
1	6681	939.510949956998	0.137555371728
1	6686	940.528074791969	0.137555371728
1	6691	941.954943219843	0.137555371728
1	6696	944.019067114984	0.137555371728
1	6703	944.982417432334	0.137555371728
1	6706	945.119972804062	0.208803565101
1	6711	945.691993642809	0.137555371728
1	6718	945.839188359587	0.137555371728
1	6723	945.976743731315	0.14884097665
1	6726	946.114299103043	0.161789118345
1	6731	947.949751862207	0.137555371728
1	6736	949.776263148484	0.137555371728
1	6741	950.982147207781	0.137555371728
1	6746	951.577323439259	0.137555371728
1	6751	952.584171574025	0.137555371728
1	6756	954.048308380374	0.137555371728
1	6761	954.412498138666	0.137555371728
1	6766	954.559335773519	0.137555371728
1	6771	954.881353811952	0.137555371728
1	6776	955.314234606861	0.137555371728
1	6782	956.917953237187	0.137555371728
1	6787	957.296011437304	0.137555371728
1	6792	957.835723299264	0.137555371728
1	6797	958.566411240602	0.137555371728
1	6804	958.801824387372	0.137555371728
1	6809	958.9393797591	0.168629805901
1	6812	959.076935130828	0.218962045739
1	6817	960.385005786302	0.137555371728
1	6822	960.832176293795	0.137555371728
1	6827	961.430870044659	0.137555371728
1	6832	961.933935118438	0.137555371728
1	6837	963.855246785003	0.137555371728
1	6842	964.485022802333	0.137555371728
1	6847	964.667129653992	0.137555371728
1	6854	964.924461638567	0.137555371728
1	6857	965.062017010295	0.208748229427
1	6862	967.205323385388	0.137555371728
1	6867	968.349410737522	0.137555371728
1	6872	968.518908279416	0.137555371728
1	6877	969.191361223842	0.137555371728
1	6882	969.426140288892	0.137555371728
1	6887	970.390969475455	0.137555371728
1	6892	970.69397164663	0.137555371728
1	6901	971.058342597653	0.137555371728
1	6906	971.195897969381	0.235348088624
1	6909	971.333453341109	0.283966112383
1	6912	971.471008712837	0.386108407688
1	6917	972.562527590296	0.137555371728
1	6922	972.918967458523	0.137555371728
1	6929	976.563427735092	0.137555371728
1	6932	976.70098310682	0.152887732518
1	6937	978.406757565215	0.137555371728
1	6942	979.273395924097	0.137555371728
1	6947	982.311912863481	0.137555371728
1	6952	982.641189883016	0.137555371728
1	6959	982.927429830675	0.137555371728
1	6962	983.064985202403	0.139614671103
1	6967	983.818592690723	0.137555371728
1	6972	984.642760459554	0.137555371728
1	6977	985.838807382802	0.137555371728
1	6982	986.8437097961	0.137555371728
1	6987	987.204390103665	0.137555371728
1	6992	988.305968212648	0.137555371728
1	6999	988.756387195253	0.137555371728
1	7002	988.893942566981	0.170995635474
1	7007	989.866528102226	0.137555371728
1	7012	991.200108015932	0.137555371728
1	7019	991.409922838035	0.137555371728
1	7022	991.547478209763	0.267013516989
1	7027	991.69752844302	0.137555371728
1	7033	992.541705434196	0.137555371728
1	7038	992.749838898968	0.137555371728
1	7045	993.009548560432	0.137555371728
1	7052	993.14710393216	0.274345567414
1	7055	993.284659303888	0.236784258679
1	7058	993.422214675616	0.333910196479
1	7063	993.630032120964	0.137555371728
1	7068	994.585493537291	0.137555371728
1	7073	996.94394978879	0.137555371728
1	7078	997.486750146092	0.137555371728
1	7083	997.635137683268	0.137555371728
1	7088	998.138942296625	0.137555371728
1	7093	998.926635475915	0.137555371728
1	7098	999.282946563266	0.137555371728
1	7105	999.432632326277	0.137555371728
1	7110	999.570187698005	0.264692488961
1	7113	999.707743069733	0.229211095232
2	5	1.461354590906	0
2	10	2.681274643507	0
2	15	4.462945803857	0
2	20	5.16696601906	0
2	25	7.128108719321	0
2	30	7.434914388855	0
2	35	7.83418514346	0
2	40	8.715069403911	0
2	45	9.774169218174	0
2	50	10.021945543143	0
2	59	10.817573333421	0
2	62	10.955128705149	0.069900736735
2	65	11.092684076877	0.156027230805
2	70	12.269587849362	0
2	75	13.130026369911	0
2	80	13.449251336117	0
2	85	13.7486514002	0
2	90	14.144828154983	0
2	95	14.283055649262	0
2	100	16.13989759908	0
2	105	16.559567137462	0
2	110	16.780034271962	0
2	117	16.982271986458	0
2	122	17.119827358186	0.113462062001
2	125	17.257382729914	0.081615931527
2	130	20.257767579968	0
2	135	20.438083805576	0
2	140	21.434565550775	0
2	147	21.733711161335	0
2	150	21.871266533063	0.067383478021
2	155	22.190745177922	0
2	160	22.921031585038	0
2	165	23.450947185938	0
2	172	23.773290216982	0
2	175	23.91084558871	0.054658794702
2	180	24.834386052024	0
2	185	25.323826188221	0
2	190	25.590453980954	0
2	195	25.744671955538	0
2	200	26.893095536899	0
2	205	27.124403783966	0
2	210	28.197315574924	0
2	217	28.543185939934	0
2	220	28.680741311662	0.087899514032
2	225	31.390686935634	0
2	230	32.453624318716	0
2	235	32.701023888177	0
2	240	32.935390917048	0
2	247	33.246081288288	0
2	250	33.383636660016	0.058748019881
2	256	34.692859124781	0
2	261	35.795428498383	0
2	266	36.304346342748	0
2	271	36.468796699405	0
2	276	37.033764213755	0
2	283	38.43097550179	0
2	286	38.568530873518	0.063528157701
2	291	39.265329164915	0
2	296	40.033471566459	0
2	301	40.409884935565	0
2	306	43.050699552618	0
2	311	44.924004605295	0
2	318	45.154692584005	0
2	321	45.292247955733	0.065001774512
2	326	46.11113991575	0
2	331	46.350610555365	0
2	336	46.85161070593	0
2	341	47.389743566484	0
2	346	48.109578519696	0
2	355	48.499304158612	0
2	358	48.63685953034	0.13173338347
2	361	48.774414902068	0.175119603343
2	366	49.426659650778	0
2	375	50.476097712062	0
2	378	50.61365308379	0.017953714113
2	381	50.751208455518	0.151242429365
2	386	51.316885997798	0
2	391	52.0704315951	0
2	396	55.53546863484	0
2	403	57.020995895799	0
2	406	57.158551267527	0.112936341857
2	411	57.664785256537	0
2	416	59.521322805034	0
2	421	60.126380310669	0
2	426	60.281729672802	0
2	437	61.714469879054	0
2	440	61.852025250782	0.119271804867
2	443	61.98958062251	0.218979374071
2	446	62.127135994238	0.355446445199
2	453	63.541933731656	0
2	456	63.679489103384	0.034461518251
2	461	64.877047712307	0
2	466	66.066756049796	0
2	471	68.310763778278	0
2	476	68.857195385867	0
2	481	70.810865949335	0
2	486	71.834435459857	0
2	491	72.784867709266	0
2	496	73.2481130774	0
2	501	73.611673067054	0
2	507	74.700892029542	0
2	512	75.860935119921	0
2	517	76.152493404437	0
2	522	76.899776150594	0
2	527	77.406585828473	0
2	534	77.694996255984	0
2	537	77.832551627712	0.065621310316
2	542	80.372113387262	0
2	547	80.775106921588	0
2	552	81.291543205318	0
2	557	81.832452666843	0
2	562	83.554369197343	0
2	567	83.877522160377	0
2	572	85.24473953621	0
2	577	85.536718192081	0
2	582	85.980776002562	0
2	587	86.683621253121	0
2	592	88.186226421638	0
2	597	91.092450336154	0
2	602	91.248031038389	0
2	607	91.578241766551	0
2	612	93.174857170129	0
2	617	93.376044261561	0
2	622	94.174058474652	0
2	627	95.488169544857	0
2	632	95.628149830659	0
2	637	96.444414064942	0
2	642	97.002183389553	0
2	647	97.393466960321	0
2	652	98.382424699673	0
2	657	98.940105159536	0
2	662	99.232161317301	0
2	667	99.813655868836	0
2	672	100.622290077617	0
2	677	101.251704719444	0
2	682	101.422100187451	0
2	687	102.389225481159	0
2	694	103.614739001759	0
2	697	103.752294373487	0.09318042843
2	702	105.614381337946	0
2	707	106.046433902472	0
2	712	106.608920931169	0
2	717	106.938106445506	0
2	722	107.346480593741	0
2	727	107.906722597767	0
2	732	108.203976942586	0
2	737	109.872181049039	0
2	742	110.327152833353	0
2	749	113.29099234841	0
2	752	113.428547720138	0.029708312639
2	758	113.968999535953	0
2	763	115.806469328496	0
2	768	116.46170951938	0
2	773	116.989740608004	0
2	780	117.195560636157	0
2	783	117.333116007885	0.017581566909
2	788	117.90046724354	0
2	793	118.298371841508	0
2	798	119.497331124503	0
2	803	121.091543787543	0
2	810	121.333542718177	0
2	813	121.471098089905	0.003747927318
2	818	122.300548460503	0
2	823	122.877752989676	0
2	828	124.07789981038	0
2	835	125.21064709151	0
2	838	125.348202463238	0.116209342346
2	843	125.703256753549	0
2	848	126.239479008942	0
2	853	127.103472300959	0
2	858	127.793670558672	0
2	863	128.688894968544	0
2	868	128.938702420922	0
2	875	129.507288681152	0
2	878	129.64484405288	0.127563961934
2	883	129.914949099845	0
2	888	130.360551113293	0
2	893	131.417772455101	0
2	900	132.486126088464	0
2	903	132.623681460192	0.034052312038
2	910	133.346637989908	0
2	913	133.484193361636	0.122141388512
2	920	133.871374275027	0
2	923	134.008929646755	0.054437309897
2	928	135.602954174126	0
2	937	135.845410227345	0
2	940	135.982965599073	0.080792901415
2	943	136.120520970801	0.212601334306
2	948	136.636518785378	0
2	953	137.374034822363	0
2	962	137.647597822686	0
2	965	137.785153194414	0.066597247599
2	968	137.922708566142	0.189752873882
2	973	139.993103077305	0
2	978	140.627409523824	0
2	983	141.864080265759	0
2	988	142.696564789844	0
2	995	142.885865926095	0
2	998	143.023421297823	0.093064054035
2	1005	143.852451287731	0
2	1009	144.152837234316	0.291542678657
2	1014	145.555444688416	0
2	1019	146.310036253124	0
2	1024	147.583230422686	0
2	1031	148.355919948948	0
2	1034	148.493475320676	0.092805384768
2	1041	149.353630783533	0
2	1044	149.491186155261	0.015353947197
2	1049	150.665478011012	0
2	1054	151.184658951392	0
2	1059	151.394992052002	0
2	1064	151.954183629609	0
2	1069	152.214267228453	0
2	1074	154.718047548419	0
2	1079	155.339613104373	0
2	1084	156.252780661598	0
2	1089	156.733124990464	0
2	1094	157.108571584874	0
2	1099	157.367369806675	0
2	1104	157.67191188711	0
2	1109	157.927741287444	0
2	1114	158.430275407427	0
2	1119	158.801661625402	0
2	1124	159.107946231812	0
2	1129	159.671254368498	0
2	1134	159.866720477759	0
2	1139	160.525576654237	0
2	1144	160.815117567969	0
2	1149	163.395314280379	0
2	1154	163.988603444863	0
2	1159	164.550710725796	0
2	1164	165.917155049308	0
2	1169	166.169173847033	0
2	1176	167.141063134637	0
2	1181	167.278618506365	0.068481264128
2	1184	167.416173878093	0.008997031783
2	1189	168.388621961167	0
2	1194	168.671847139499	0
2	1199	169.335004743354	0
2	1206	171.187666116845	0
2	1209	171.325221488573	0.010755137752
2	1214	171.824225058382	0
2	1219	173.625434185208	0
2	1224	174.338266863558	0
2	1233	175.948152729459	0
2	1236	176.085708101187	0.105945931145
2	1239	176.223263472915	0.209553046152
2	1244	176.572854701242	0
2	1249	177.052533747391	0
2	1254	177.216799519351	0
2	1260	177.827228852377	0
2	1267	181.507263504048	0
2	1270	181.644818875776	0.135834864289
2	1275	182.105235950827	0
2	1280	183.04384938117	0
2	1285	183.459533748739	0
2	1290	183.671123081033	0
2	1295	184.218448652875	0
2	1300	185.580153470718	0
2	1305	187.177936702509	0
2	1310	187.584207993558	0
2	1315	188.202804851125	0
2	1320	188.603397490918	0
2	1325	189.920572744554	0
2	1330	190.932228407889	0
2	1335	191.468284563749	0
2	1342	192.341128978097	0
2	1347	192.478684349825	0.087028853747
2	1350	192.616239721553	0.095058575324
2	1355	192.780211360951	0
2	1360	192.946327633017	0
2	1365	194.812466799036	0
2	1370	195.415776575337	0
2	1377	197.209995943655	0
2	1380	197.347551315383	0.058302137673
2	1385	198.282819046348	0
2	1392	199.257993618175	0
2	1397	199.395548989903	0.130057893514
2	1400	199.533104361631	0.071886110562
2	1405	200.336367934483	0
2	1410	201.638588230347	0
2	1417	201.928875885224	0
2	1420	202.066431256952	0.0721451213
2	1427	202.615539573544	0
2	1434	202.753094945272	0.093570672191
2	1437	202.890650317	0.104712115668
2	1442	203.028205688728	0.151059982841
2	1445	203.165761060456	0.1021214586
2	1450	204.085389024741	0
2	1461	204.26194848321	0
2	1466	204.399503854938	0.070298210155
2	1469	204.537059226666	0.164364022129
2	1472	204.674614598394	0.283315281958
2	1475	204.812169970122	0.296556851626
2	1480	205.472547018622	0
2	1485	206.276142979334	0
2	1490	206.692626020683	0
2	1495	207.61528260787	0
2	1500	207.896716776426	0
2	1505	208.566236484688	0
2	1513	209.180936011646	0
2	1516	209.318491383374	0.04546074131
2	1521	211.197037564888	0
2	1528	211.676893054739	0
2	1531	211.814448426467	0.072386706431
2	1538	212.307556093217	0
2	1543	212.445111464945	0.032327758726
2	1546	212.582666836673	0.074354135633
2	1551	213.800435964264	0
2	1556	214.359278498172	0
2	1561	214.754047130438	0
2	1566	215.423988084136	0
2	1571	216.148479225379	0
2	1576	216.854141304466	0
2	1581	217.271092345189	0
2	1586	218.397713967767	0
2	1591	218.651187688008	0
2	1598	220.022413773119	0
2	1601	220.159969144847	0.030321156699
2	1606	220.759640453344	0
2	1611	221.204350455848	0
2	1616	221.595664116206	0
2	1621	222.284775395372	0
2	1626	222.895019442183	0
2	1631	225.962814761217	0
2	1636	226.352171794672	0
2	1641	228.633271430548	0
2	1646	230.644379287083	0
2	1651	231.225841276512	0
2	1656	231.724117442036	0
2	1661	232.053646049871	0
2	1668	234.359762301155	0
2	1671	234.497317672883	0.041963892928
2	1676	236.011826403279	0
2	1681	236.49331093107	0
2	1686	237.949319077474	0
2	1693	238.546470531295	0
2	1696	238.684025903023	0.056177426373
2	1703	239.121063628502	0
[...]
7	5286	731.373905218816	0
7	5291	731.624037690043	0
7	5298	731.819947296469	0
7	5301	731.957502668197	0
7	5308	733.926305602481	0
7	5311	734.063860974209	0
7	5316	736.640624313323	0
7	5321	737.570757214977	0
7	5326	737.759320915871	0
7	5331	740.218217702312	0
7	5336	740.669619796745	0
7	5341	741.175462242618	0
7	5346	741.684532443581	0
7	5351	742.202867762067	0
7	5356	743.672747961408	0
7	5361	744.601183263382	0
7	5366	744.782436091337	0
7	5371	745.285796101906	0
7	5376	745.511019352655	0
7	5381	746.542270836089	0
7	5386	746.791316619797	0
7	5393	747.319162936954	0
7	5396	747.456718308682	0
7	5401	747.920474886869	0
7	5406	748.281898124383	0
7	5411	749.153682607915	0
7	5416	750.610248939611	0
7	5421	751.543589502033	0
7	5426	752.101927713956	0
7	5431	752.26066649516	0
7	5438	752.424915867955	0
7	5441	752.562471239683	0
7	5446	752.865382505322	0
7	5451	753.577135114784	0
7	5456	754.4280639227	0
7	5461	754.693863020517	0
7	5468	754.977709466606	0
7	5471	755.115264838334	0
7	5476	755.609962962205	0
7	5483	756.37707908473	0
7	5486	756.514634456458	0
7	5493	757.465804294087	0
7	5496	757.603359665815	0
7	5501	758.349881849696	0
7	5508	759.424710699941	0
7	5513	759.562266071669	0
7	5516	759.699821443397	0
7	5521	759.937651258821	0
7	5527	760.749114369141	0
7	5532	762.5313681956	0
7	5539	762.751160004108	0
7	5544	762.888715375836	0
7	5547	763.026270747564	0
7	5552	763.211382662195	0
7	5557	763.654140710346	0
7	5562	764.199877732138	0
7	5567	764.796814603088	0
7	5572	765.002597692705	0
7	5577	765.892136074287	0
7	5582	768.296411477969	0
7	5589	768.745813364863	0
7	5594	768.883368736591	0
7	5597	769.020924108319	0
7	5604	769.268461185937	0
7	5607	769.406016557665	0
7	5612	770.235119087883	0
7	5617	772.055889855521	0
7	5622	772.415460513382	0
7	5627	773.039983765244	0
7	5632	774.327262838276	0
7	5637	774.866879844025	0
7	5642	775.006986727517	0
7	5647	776.177599263285	0
7	5654	776.677217042499	0
7	5657	776.814772414227	0
7	5662	777.668526301505	0
7	5667	778.009830052145	0
7	5674	778.792943446485	0
7	5677	778.930498818213	0
7	5682	779.290492693735	0
7	5687	780.003184265602	0
7	5692	780.768111802743	0
7	5697	782.510796507958	0
7	5702	785.234076046729	0
7	5707	786.26245291947	0
7	5712	786.4351611606	0
7	5717	787.970802619005	0
7	5722	789.055166792141	0
7	5727	789.808734374356	0
7	5732	790.064499100283	0
7	5737	790.473353507004	0
7	5744	791.25984718566	0
7	5747	791.397402557388	0
7	5754	791.734314410861	0
7	5757	791.871869782589	0
7	5762	792.314679224486	0
7	5767	792.623385639727	0
7	5772	794.947074713851	0
7	5782	795.720736656249	0
7	5785	795.858292027977	0
7	5788	795.995847399705	0
7	5793	797.090082371224	0
7	5798	800.021605214468	0
7	5803	800.549996947698	0
7	5808	800.695694693314	0
7	5813	800.870611489847	0
7	5818	801.532493162873	0
7	5823	804.13988360728	0
7	5828	804.399351508831	0
7	5833	804.889015361871	0
7	5838	806.028636728168	0
7	5843	806.457256692842	0
7	5848	806.733013902813	0
7	5853	808.211863219805	0
7	5858	808.407239727338	0
7	5863	809.834269901868	0
7	5868	810.402255356509	0
7	5875	811.106639575419	0
7	5878	811.244194947147	0
7	5883	812.200222075412	0
7	5888	812.775456564852	0
7	5893	813.903610521941	0
7	5898	814.228608536404	0
7	5903	814.808656867175	0
7	5908	817.75779051001	0
7	5913	818.825940531421	0
7	5918	821.262845454152	0
7	5923	823.502935668004	0
7	5928	823.696974005225	0
7	5933	823.937313936879	0
7	5938	824.653265243238	0
7	5943	825.864029943383	0
7	5948	826.283411292275	0
7	5953	826.51071250069	0
7	5958	827.418754169786	0
7	5963	827.776368557944	0
7	5968	827.918332635166	0
7	5977	828.339233109813	0
7	5980	828.476788481541	0
7	5983	828.614343853269	0
7	5988	830.313083434098	0
7	5995	831.578124456848	0
7	6002	831.715679828576	0
7	6007	831.853235200304	0
7	6010	831.990790572032	0
7	6013	832.12834594376	0
7	6018	832.346264550783	0
7	6023	833.854950990109	0
7	6029	835.895145172934	0
7	6034	836.822922889991	0
7	6039	836.97203745407	0
7	6046	837.305073030608	0
7	6049	837.442628402336	0
7	6054	841.084498082168	0
7	6059	844.458672902303	0
7	6064	845.212980851113	0
7	6069	845.632744973028	0
7	6074	846.03764132635	0
7	6079	846.880487267001	0
7	6086	848.086271742113	0
7	6089	848.223827113841	0
7	6094	849.417718426763	0
7	6101	849.679049172502	0
7	6104	849.81660454423	0
7	6109	850.8839270232	0
7	6114	851.703909592281	0
7	6119	852.560513417105	0
7	6124	852.743211679543	0
7	6129	854.84121821191	0
7	6134	855.636974369472	0
7	6139	856.606720432042	0
7	6144	857.740614728619	0
7	6151	859.226486335612	0
7	6154	859.36404170734	0
7	6159	860.024775487217	0
7	6164	860.177164259422	0
7	6169	860.915069055401	0
7	6174	861.512722624393	0
7	6179	862.624653575001	0
7	6184	863.558898497203	0
7	6191	863.927921542584	0
7	6194	864.065476914312	0
7	6199	864.21591475473	0
7	6204	865.435833343811	0
7	6211	866.125960733362	0
7	6214	866.26351610509	0
7	6219	866.561638094659	0
7	6224	867.024046522847	0
7	6229	869.779001228485	0
7	6234	870.29533125629	0
7	6239	870.694409044621	0
7	6244	871.900834693113	0
7	6251	873.484149103028	0
7	6254	873.621704474756	0
7	6259	873.843246109506	0
7	6264	874.66797386599	0
7	6269	876.06174213785	0
7	6274	877.717354075523	0
7	6280	878.019057051884	0
7	6285	880.744247119589	0
7	6290	880.963105234453	0
7	6295	881.503716414989	0
7	6300	882.211185558208	0
7	6305	882.800443780799	0
7	6310	884.243307451796	0
7	6315	885.161968546968	0
7	6322	886.793104360769	0
7	6325	886.930659732497	0
7	6330	888.792809843628	0
7	6335	888.984647087078	0
7	6340	889.370421432803	0
7	6345	889.804169050527	0
7	6350	890.10640212264	0
7	6355	890.698825733885	0
7	6360	891.110577876983	0
7	6367	895.084357151132	0
7	6370	895.22191252286	0
7	6375	896.705899164475	0
7	6380	897.403987496972	0
7	6385	897.557121147897	0
7	6390	898.090956847609	0
7	6395	899.012692764512	0
7	6404	899.255876589309	0
7	6407	899.393431961037	0
7	6410	899.530987332765	0
7	6417	900.083444648523	0
7	6420	900.221000020251	0
7	6425	902.196777325181	0
7	6432	903.057400513433	0
7	6435	903.194955885161	0
7	6440	904.483301329461	0
7	6445	904.804813082004	0
7	6450	905.379788345046	0
7	6457	905.774736764307	0
7	6462	905.912292136035	0
7	6465	906.049847507763	0
7	6470	909.002004377372	0
7	6475	909.543036711362	0
7	6480	910.048550930017	0
7	6485	910.423740481062	0
7	6490	912.152428195578	0
7	6495	915.379288013071	0
7	6502	916.434193997179	0
7	6505	916.571749368907	0
7	6510	916.820375438058	0
7	6519	917.027088756789	0
7	6522	917.164644128517	0
7	6525	917.302199500245	0
7	6531	918.551469998185	0
7	6536	919.88287734282	0
7	6541	920.948449615906	0
7	6546	921.223575627682	0
7	6553	922.48820315769	0
7	6556	922.625758529418	0
7	6561	922.79762881487	0
7	6568	923.471765312558	0
7	6571	923.609320684286	0
7	6576	925.962541466405	0
7	6581	926.158051972165	0
7	6586	926.775641460282	0
7	6591	927.602104236923	0
7	6596	928.284873466718	0
7	6601	929.631136942354	0
7	6606	929.912991670994	0
7	6611	931.560178424126	0
7	6620	933.735667354919	0
7	6625	933.873222726647	0
7	6628	934.010778098375	0
7	6631	934.148333470103	0
7	6636	935.033606453003	0
7	6641	935.729432779788	0
7	6646	935.924384620163	0
7	6653	936.488368176115	0
7	6656	936.625923547843	0
7	6661	936.770368167619	0
7	6668	937.278560808618	0
7	6671	937.416116180346	0
7	6676	937.853439181675	0
7	6681	939.510949956998	0
7	6686	940.528074791969	0
7	6691	941.954943219843	0
7	6696	944.019067114984	0
7	6703	944.982417432334	0
7	6706	945.119972804062	0
7	6711	945.691993642809	0
7	6718	945.839188359587	0
7	6723	945.976743731315	0
7	6726	946.114299103043	0
7	6731	947.949751862207	0
7	6736	949.776263148484	0
7	6741	950.982147207781	0
7	6746	951.577323439259	0
7	6751	952.584171574025	0
7	6756	954.048308380374	0
7	6761	954.412498138666	0
7	6766	954.559335773519	0
7	6771	954.881353811952	0
7	6776	955.314234606861	0
7	6782	956.917953237187	0
7	6787	957.296011437304	0
7	6792	957.835723299264	0
7	6797	958.566411240602	0
7	6804	958.801824387372	0
7	6809	958.9393797591	0
7	6812	959.076935130828	0
7	6817	960.385005786302	0
7	6822	960.832176293795	0
7	6827	961.430870044659	0
7	6832	961.933935118438	0
7	6837	963.855246785003	0
7	6842	964.485022802333	0
7	6847	964.667129653992	0
7	6854	964.924461638567	0
7	6857	965.062017010295	0
7	6862	967.205323385388	0
7	6867	968.349410737522	0
7	6872	968.518908279416	0
7	6877	969.191361223842	0
7	6882	969.426140288892	0
7	6887	970.390969475455	0
7	6892	970.69397164663	0
7	6901	971.058342597653	0
7	6906	971.195897969381	0
7	6909	971.333453341109	0
7	6912	971.471008712837	0
7	6917	972.562527590296	0
7	6922	972.918967458523	0
7	6929	976.563427735092	0
7	6932	976.70098310682	0
7	6937	978.406757565215	0
7	6942	979.273395924097	0
7	6947	982.311912863481	0
7	6952	982.641189883016	0
7	6959	982.927429830675	0
7	6962	983.064985202403	0
7	6967	983.818592690723	0
7	6972	984.642760459554	0
7	6977	985.838807382802	0
7	6982	986.8437097961	0
7	6987	987.204390103665	0
7	6992	988.305968212648	0
7	6999	988.756387195253	0
7	7002	988.893942566981	0
7	7007	989.866528102226	0
7	7012	991.200108015932	0
7	7019	991.409922838035	0
7	7022	991.547478209763	0
7	7027	991.69752844302	0
7	7033	992.541705434196	0
7	7038	992.749838898968	0
7	7045	993.009548560432	0
7	7052	993.14710393216	0
7	7055	993.284659303888	0
7	7058	993.422214675616	0
7	7063	993.630032120964	0
7	7068	994.585493537291	0
7	7073	996.94394978879	0
7	7078	997.486750146092	0
7	7083	997.635137683268	0
7	7088	998.138942296625	0
7	7093	998.926635475915	0
7	7098	999.282946563266	0
7	7105	999.432632326277	0
7	7110	999.570187698005	0
7	7113	999.707743069733	0
8	58	10.817573333421	0.069900736735
8	61	10.955128705149	0.156027230805
8	116	16.982271986458	0.113462062001
8	121	17.119827358186	0.081615931527
8	146	21.733711161335	0.067383478021
8	171	23.773290216982	0.054658794702
8	216	28.543185939934	0.087899514032
8	246	33.246081288288	0.058748019881
8	282	38.43097550179	0.063528157701
8	317	45.154692584005	0.065001774512
8	354	48.499304158612	0.13173338347
8	357	48.63685953034	0.175119603343
8	374	50.476097712062	0.017953714113
8	377	50.61365308379	0.151242429365
8	402	57.020995895799	0.112936341857
8	436	61.714469879054	0.119271804867
8	439	61.852025250782	0.218979374071
8	442	61.98958062251	0.355446445199
8	452	63.541933731656	0.034461518251
8	533	77.694996255984	0.065621310316
8	693	103.614739001759	0.09318042843
8	748	113.29099234841	0.029708312639
8	779	117.195560636157	0.017581566909
8	809	121.333542718177	0.003747927318
8	834	125.21064709151	0.116209342346
8	874	129.507288681152	0.127563961934
8	899	132.486126088464	0.034052312038
8	909	133.346637989908	0.122141388512
8	919	133.871374275027	0.054437309897
8	936	135.845410227345	0.080792901415
8	939	135.982965599073	0.212601334306
8	961	137.647597822686	0.066597247599
8	964	137.785153194414	0.189752873882
8	994	142.885865926095	0.093064054035
8	1006	144.015281862588	0.291542678657
8	1030	148.355919948948	0.092805384768
8	1040	149.353630783533	0.015353947197
8	1175	167.141063134637	0.068481264128
8	1180	167.278618506365	0.008997031783
8	1205	171.187666116845	0.010755137752
8	1232	175.948152729459	0.105945931145
8	1235	176.085708101187	0.209553046152
8	1266	181.507263504048	0.135834864289
8	1341	192.341128978097	0.087028853747
8	1346	192.478684349825	0.095058575324
8	1376	197.209995943655	0.058302137673
8	1391	199.257993618175	0.130057893514
8	1396	199.395548989903	0.071886110562
8	1416	201.928875885224	0.0721451213
8	1426	202.615539573544	0.093570672191
8	1433	202.753094945272	0.104712115668
8	1436	202.890650317	0.151059982841
8	1441	203.028205688728	0.1021214586
8	1460	204.26194848321	0.070298210155
8	1465	204.399503854938	0.164364022129
8	1468	204.537059226666	0.283315281958
8	1471	204.674614598394	0.296556851626
8	1512	209.180936011646	0.04546074131
8	1527	211.676893054739	0.072386706431
8	1537	212.307556093217	0.032327758726
8	1542	212.445111464945	0.074354135633
8	1597	220.022413773119	0.030321156699
8	1667	234.359762301155	0.041963892928
8	1692	238.546470531295	0.056177426373
8	1702	239.121063628502	0.041491813665
8	1722	242.236863873739	0.000778109231
8	1732	242.597308497187	0.13496465345
8	1761	245.992741675199	0.194786225132
8	1763	246.130297046927	0.152468772078
8	1803	256.849035708571	0.075827016793
8	1883	267.291228016084	0.034088937773
8	1888	267.428783387812	0.085897369475
8	1968	279.618922948579	0.061631546598
8	1998	281.061684576911	0.122437352198
8	2039	284.61296557909	0.117142276467
8	2079	292.275021695849	0.101525033874
8	2129	299.019398511819	0.05330068944
8	2169	304.025819906387	0.057183689862
8	2179	304.5666520794	0.134681394707
8	2199	306.511139136554	0.072258637851
8	2204	306.648694508282	0.067397318235
8	2239	311.207278333577	0.040700651079
8	2265	313.55600592082	0.04643801076
8	2440	341.224999422347	0.055939160711
8	2455	342.014626850519	0.057114380061
8	2512	350.215368137887	0.001463595609
8	2526	351.524185651274	0.055093722468
8	2531	351.661741023002	0.107602317441
8	2586	365.616110212153	0.092912509235
8	2596	366.681190644245	0.133311915253
8	2636	375.336231415671	0.100972795639
8	2681	380.914244978372	0.002434644845
8	2686	381.0518003501	0.084111042323
8	2731	388.453580173252	0.049464800076
8	2756	390.16950915593	0.020295088856
8	2807	397.244924362499	0.025775612003
8	2822	398.267099541182	0.004067542497
8	2854	402.66230163665	0.114590161329
8	2859	402.799857008378	0.163575629312
8	2862	402.937412380106	0.152425409797
8	2892	407.507450889519	0.02181067612
8	2902	407.840266561175	0.082041025356
8	2909	407.977821932903	0.074869601359
8	2912	408.115377304631	0.149447057803
8	2942	414.073327698071	0.101741881383
8	2957	415.775545643002	0.039488128027
8	2982	419.744767752837	0.102236022387
8	2997	421.07909533566	0.078809738179
8	3078	436.534678444857	0.084003323829
8	3083	436.672233816585	0.104917960101
8	3093	437.071592622373	0.108750804392
8	3098	437.209147994101	0.024915421547
8	3118	438.712438710133	0.023237757971
8	3158	443.597859384323	0.058267852169
8	3163	443.735414756051	0.058823860856
8	3238	453.397887935723	0.102003301791
8	3245	453.535443307451	0.099050176318
8	3248	453.672998679179	0.157348412816
8	3274	457.477496255908	0.000723983909
8	3344	465.399271550779	0.122910502686
8	3384	471.404715321888	0.129735153334
8	3479	488.540512175625	0.033936723139
8	3494	489.318212253357	0.016035824166
8	3499	489.455767625085	0.011810498573
8	3518	491.041610960124	0.263066073944
8	3520	491.179166331852	0.365892873332
8	3560	494.303022923772	0.051317724705
8	3650	510.083051558778	0.065151159591
8	3660	510.770492419711	0.080771447312
8	3680	512.827469573546	0.113382727805
8	3715	518.708292432593	0.043145960881
8	3750	522.189078597196	0.007089488068
8	3755	522.326633968924	0.11684483975
8	3803	531.237849074301	0.051394583933
8	3806	531.375404446029	0.182251991907
8	3831	534.446038971652	0.080247469785
8	3841	535.878235740859	0.039728520071
8	3856	537.294567557493	0.087336608307
8	3883	540.155521607335	0.134663418286
8	3886	540.293076979063	0.163161585133
8	3911	545.794466071959	0.025103000237
8	3938	548.351389667213	0.123291722591
8	3941	548.488945038941	0.227319602853
8	3956	549.983142897491	0.132828583681
8	3976	551.435506533325	0.103360799443
8	4018	557.941373725987	0.289800830952
8	4067	564.801994215266	0.069626499203
8	4072	564.939549586994	0.043799151076
8	4082	565.349936924448	0.041117205374
8	4197	584.479909081115	0.116164404907
8	4207	585.225835793537	0.065802195933
8	4214	585.363391165265	0.051453439027
8	4217	585.500946536993	0.180229678686
8	4237	588.537763596985	0.051374155957
8	4252	589.349809513681	0.043308360621
8	4293	594.498371832844	0.082317022012
8	4298	594.635927204572	0.136385081436
8	4338	599.758231667765	0.022983428895
8	4363	602.288438938175	0.129072833554
8	4413	607.135336972239	0.117028413754
8	4508	621.657337730944	0.102083126932
8	4526	623.399941937627	0.126021011914
8	4529	623.537497309355	0.159885256791
8	4571	630.409446430845	0.114124399602
8	4574	630.547001802573	0.150150994054
8	4589	633.706613546357	0.101440398509
8	4604	636.397714678332	0.124103714847
8	4609	636.53527005006	0.098576756915
8	4614	636.672825421788	0.095592148148
8	4654	642.901486915901	0.091753903445
8	4659	643.039042287629	0.002201058063
8	4664	643.176597659357	0.080342088569
8	4674	643.608790901368	0.075845186373
8	4699	647.987638475412	0.120508572578
8	4704	648.12519384714	0.013281659787
8	4739	651.946722187032	0.029684278997
8	4754	653.498922837863	0.086440563969
8	4771	657.255222345044	0.249724321023
8	4790	659.380654122897	0.048929414218
8	4795	659.518209494625	0.13526041332
8	4800	659.655764866353	0.020745135138
8	4810	660.600954645051	0.109357132862
8	4825	664.912138850802	0.022327867297
8	4865	675.999555430604	0.07676402779
8	4890	679.419198380814	0.061791484842
8	4925	685.735898892982	0.050161518718
8	4965	692.618876193967	0.111606581888
8	5000	696.388538713096	0.042038393571
8	5033	700.016396229087	0.105014211041
8	5040	700.153951600815	0.232540712579
8	5043	700.291506972543	0.234239811823
8	5046	700.429062344271	0.361470420985
8	5061	702.133678345915	0.000534204112
8	5066	702.271233717643	0.029836272034
8	5071	702.408789089371	0.127841989089
8	5106	706.271388056035	0.074487300133
8	5126	709.610638275305	0.113612655843
8	5168	715.8899804563	0.09096000009
8	5171	716.027535828028	0.195308203697
8	5191	718.523237167884	0.010625502049
8	5201	719.370031884923	0.010329180203
8	5211	719.896334970357	0.010378660501
8	5282	731.236349847088	0.118048525499
8	5297	731.819947296469	0.122480513604
8	5307	733.926305602481	0.079913366953
8	5392	747.319162936954	0.076170202332
8	5437	752.424915867955	0.116601879744
8	5467	754.977709466606	0.021034681932
8	5482	756.37707908473	0.072247140859
8	5492	757.465804294087	0.066567856053
8	5507	759.424710699941	0.036750448558
8	5512	759.562266071669	0.054092394395
8	5538	762.751160004108	0.090486665402
8	5543	762.888715375836	0.067023561546
8	5588	768.745813364863	0.000626991744
8	5593	768.883368736591	0.111486419644
8	5603	769.268461185937	0.111630236849
8	5653	776.677217042499	0.118613912826
8	5673	778.792943446485	0.113809151212
8	5743	791.25984718566	0.008265716717
8	5753	791.734314410861	0.028202172276
8	5781	795.720736656249	0.049949927601
8	5784	795.858292027977	0.151280332518
8	5874	811.106639575419	0.103363959481
8	5976	828.339233109813	0.123917779844
8	5979	828.476788481541	0.162982132619
8	5994	831.578124456848	0.027128653401
8	6001	831.715679828576	0.125122097165
8	6006	831.853235200304	0.24814151685
8	6009	831.990790572032	0.207694075862
8	6045	837.305073030608	0.033127460503
8	6085	848.086271742113	0.134835944771
8	6100	849.679049172502	0.014158334341
8	6150	859.226486335612	0.103825106668
8	6190	863.927921542584	0.050968359486
8	6210	866.125960733362	0.004377698646
8	6250	873.484149103028	0.089784759667
8	6321	886.793104360769	0.088895008872
8	6366	895.084357151132	0.11733233986
8	6403	899.255876589309	0.02221482962
8	6406	899.393431961037	0.143850059933
8	6416	900.083444648523	0.078914046479
8	6431	903.057400513433	0.057448846408
8	6456	905.774736764307	0.027037069067
8	6461	905.912292136035	0.002109639241
8	6501	916.434193997179	0.080081344523
8	6518	917.027088756789	0.066914394327
8	6521	917.164644128517	0.202247069963
8	6552	922.48820315769	0.021965068407
8	6567	923.471765312558	0.051700458976
8	6619	933.735667354919	0.024674704234
8	6624	933.873222726647	0.152179880365
8	6627	934.010778098375	0.13838837284
8	6652	936.488368176115	0.108227074909
8	6667	937.278560808618	0.05756290201
8	6702	944.982417432334	0.071248193373
8	6717	945.839188359587	0.011285604922
8	6722	945.976743731315	0.024233746617
8	6803	958.801824387372	0.031074434173
8	6808	958.9393797591	0.081406674011
8	6853	964.924461638567	0.071192857699
8	6900	971.058342597653	0.097792716896
8	6905	971.195897969381	0.146410740655
8	6908	971.333453341109	0.24855303596
8	6928	976.563427735092	0.01533236079
8	6958	982.927429830675	0.002059299375
8	6998	988.756387195253	0.033440263746
8	7018	991.409922838035	0.129458145261
8	7044	993.009548560432	0.136790195686
8	7051	993.14710393216	0.099228886951
8	7054	993.284659303888	0.196354824751
8	7104	999.432632326277	0.127137117233
8	7109	999.570187698005	0.091655723504

