version 2
run General-189-20240201-11:04:22-40057
attr configname General
attr datetime 20240201-11:04:22
attr experiment General
attr inifile main.ini
attr iterationvars "$0=1.4, $1=3.5, $2=30"
attr iterationvarsf 1.4,3.5,30-
attr measurement "$0=1.4, $1=3.5, $2=30"
attr network Rete
attr processid 40057
attr repetition 9
attr replication #9
attr resultdir results
attr runnumber 189
attr seedset 189
param Rete.lambda 1.4
param Rete.a 0.3s
param Rete.b 3.5s
param Rete.c 0.1s
param Rete.d 0.3s
param Rete.mu 3.0
param Rete.source2.interArrivalTime exponential(1s/lambda)
param Rete.source2.jobServiceTime exponential(1s/mu)
param Rete.source2.deadline uniform(a,b)
param Rete.server2.j 30
param Rete.server2.V uniform(c,d)

vector 0 Rete.passiveQueue queueLength:vector ETV
attr interpolationmode sample-hold
attr title "queue length, vector"
vector 1 Rete.sink lifeTime:vector ETV
attr interpolationmode none
attr title "lifetime of arrived jobs, vector"
attr unit s
vector 2 Rete.sink totalQueueingTime:vector ETV
attr interpolationmode none
attr title "the total time spent in queues by arrived jobs, vector"
attr unit s
vector 3 Rete.sink queuesVisited:vector ETV
attr interpolationmode none
attr title "the total number of queues visited by arrived jobs, vector"
vector 4 Rete.sink totalServiceTime:vector ETV
attr interpolationmode none
attr title "the total time spent  by arrived jobs, vector"
attr unit s
vector 5 Rete.sink totalDelayTime:vector ETV
attr interpolationmode none
attr title "the total time spent in delay nodes by arrived jobs, vector"
attr unit s
vector 6 Rete.sink delaysVisited:vector ETV
attr interpolationmode none
attr title "the total number of delays visited by arrived jobs, vector"
vector 7 Rete.sink generation:vector ETV
attr interpolationmode none
attr title "the generation of the arrived jobs, vector"
vector 8 Rete.passiveQueue queueingTime:vector ETV
attr interpolationmode none
attr title "queueing time at dequeue, vector"
attr unit s
0	0	0	0
0	30	6.260966969084	1
0	31	6.407048088319	0
0	40	7.129553609054	1
0	41	7.277440189246	0
0	45	7.293078327271	1
0	46	7.435657526295	0
0	55	7.695788214124	1
0	56	7.801753764666	0
0	105	14.65011266572	1
0	106	14.671935997353	0
0	115	15.089991045744	1
0	116	15.102204368229	0
0	130	16.196755220923	1
0	131	16.253876087031	0
0	196	27.03420593796	1
0	197	27.123885125414	0
0	201	27.277622739666	1
0	202	27.282102462463	0
0	231	31.395013517508	1
0	232	31.43324858032	0
0	246	33.36804169059	1
0	247	33.499632824029	0
0	251	33.591282985895	1
0	252	33.657850161078	0
0	261	34.100213820789	1
0	262	34.244807455405	0
0	303	41.110670036188	1
0	304	41.287827133391	0
0	307	41.426976914604	1
0	308	41.44604447044	0
0	317	41.80504105182	1
0	318	41.814530832027	0
0	327	44.079917147266	1
0	328	44.116443375463	0
0	342	45.246291532185	1
0	343	45.255142175416	0
0	387	57.03528693947	1
0	389	57.063485074015	2
0	390	57.148806856053	1
0	393	57.307024193102	0
0	397	57.363966700787	1
0	398	57.465241530151	0
0	402	57.558817550747	1
0	403	57.6234588672	0
0	437	67.650760125897	1
0	438	67.655418652077	0
0	447	67.969154653034	1
0	448	68.09591736587	0
0	452	68.213213864246	1
0	455	68.482571155954	0
0	493	74.92471579119	1
0	494	74.938731260612	0
0	598	87.993188764077	1
0	599	88.099157643057	0
0	634	91.548292038512	1
0	635	91.677295399279	0
0	639	91.729064190051	1
0	641	91.75137165679	2
0	643	91.815041815479	3
0	644	91.835512736328	2
0	647	91.993730073377	1
0	650	92.151947410426	0
0	659	92.352069894766	1
0	660	92.493575444274	0
0	664	92.555905388956	1
0	666	92.58373218706	2
0	667	92.651792781323	1
0	670	92.810010118372	0
0	674	92.92454841159	1
0	675	92.968227455421	0
0	699	97.932524078912	1
0	700	97.945349000169	0
0	795	107.241053307705	1
0	796	107.297429222277	0
0	810	110.391308835796	1
0	811	110.525833719672	0
0	825	115.872774131124	1
0	826	115.972332641431	0
0	830	116.019532182738	1
0	831	116.13054997848	0
0	835	116.252806223833	1
0	836	116.288767315529	0
0	870	119.466426883912	1
0	871	119.520744558586	0
0	890	122.014616889382	1
0	891	122.038576774837	0
0	905	123.218806056199	1
0	908	123.487993802513	0
0	921	124.301307422535	1
0	922	124.3647208732	0
0	926	124.412557582661	1
0	927	124.522938210249	0
0	941	126.62985822097	1
0	942	126.709983838307	0
0	966	133.911397967092	1
0	967	133.946829008206	0
0	1016	143.594875680609	1
0	1017	143.686803342158	0
0	1058	146.8627015085	1
0	1059	146.875085122033	0
0	1092	150.252000537659	1
0	1093	150.315699553871	0
0	1122	155.060387063723	1
0	1123	155.213769931705	0
0	1137	156.48585070417	1
0	1138	156.508501490733	0
0	1157	158.886542304459	1
0	1158	158.950895578605	0
0	1177	162.432504542911	1
0	1178	162.473592705847	0
0	1187	162.674417365222	1
0	1188	162.823660201708	0
0	1192	162.846904328549	1
0	1193	162.981877538757	0
0	1202	164.159981649755	1
0	1203	164.27464867674	0
0	1209	164.626094822431	1
0	1211	164.626392798701	2
0	1212	164.661302466824	1
0	1215	164.662682091713	2
0	1216	164.819519803873	1
0	1220	164.866034622519	2
0	1221	164.977737140922	1
0	1225	165.133008177607	2
0	1226	165.135954477971	1
0	1229	165.29417181502	0
0	1233	165.388888677639	1
0	1234	165.452389152069	0
0	1258	167.73148482245	1
0	1259	167.787423891001	0
0	1263	167.89078428204	1
0	1264	167.94564122805	0
0	1268	168.0500623217	1
0	1269	168.103858565099	0
0	1283	169.450529873062	1
0	1284	169.552958378219	0
0	1303	170.95552274036	1
0	1304	171.102801455545	0
0	1360	179.900552828024	1
0	1361	179.914554864456	0
0	1389	185.02110396524	1
0	1390	185.130836499654	0
0	1404	186.205715591253	1
0	1405	186.207386227672	0
0	1419	189.163446869822	1
0	1420	189.267190343324	0
0	1424	189.306847729996	1
0	1425	189.425407680373	0
0	1434	190.886762233064	1
0	1435	190.940425872333	0
0	1494	197.502088697976	1
0	1495	197.613858363063	0
0	1511	200.334791115519	1
0	1512	200.380290104386	0
0	1560	205.098060884583	1
0	1561	205.172309894488	0
0	1595	209.771822014792	1
0	1596	209.888388340325	0
0	1645	214.538312737729	1
0	1646	214.557715607705	0
0	1655	215.134906886465	1
0	1656	215.256213064941	0
0	1686	218.846636043916	1
0	1687	218.910206107158	0
0	1696	219.768230547097	1
0	1697	219.89924578315	0
0	1706	221.426322127529	1
0	1707	221.541420946528	0
0	1731	224.629506922003	1
0	1732	224.664718566477	0
0	1756	228.20969335376	1
0	1757	228.272593603967	0
0	1801	236.035499309335	1
0	1802	236.157241479131	0
0	1813	237.386513102555	1
0	1814	237.57703854057	0
0	1832	241.381164622754	1
0	1833	241.459315871508	0
0	1857	244.137036892626	1
0	1858	244.158910351151	0
0	1867	244.880030847587	1
0	1868	244.925207092717	0
0	1882	246.190632336136	1
0	1883	246.303346957589	0
0	1917	250.565298154761	1
0	1918	250.566810861514	0
0	1952	254.206159446888	1
0	1953	254.330620093466	0
0	1962	254.625928757436	1
0	1966	254.831548219857	2
0	1967	254.908310495019	1
0	1969	255.066527832068	0
0	1988	257.651791221132	1
0	1989	257.72561677706	0
0	2008	259.335748584604	1
0	2009	259.386597543601	0
0	2013	259.416841840108	1
0	2014	259.54481488065	0
0	2023	260.747214178537	1
0	2024	260.856921054943	0
0	2033	261.323831110676	1
0	2034	261.345021346021	0
0	2073	266.242674130723	1
0	2074	266.354100968385	0
0	2088	269.642502880169	1
0	2089	269.797580151613	0
0	2093	269.843367148989	1
0	2094	269.955797488662	0
0	2103	270.659716695539	1
0	2104	270.746022291464	0
0	2113	271.964939969731	1
0	2116	272.292837331371	0
0	2174	280.817685175754	1
0	2175	280.851255696041	0
0	2184	281.117254828008	1
0	2185	281.208222009609	0
0	2194	281.685101534213	1
0	2195	281.79264939259	0
0	2224	287.476591653168	1
0	2225	287.563769993717	0
0	2229	287.604736197951	1
0	2230	287.721987330766	0
0	2234	287.735490286302	1
0	2235	287.880204667815	0
0	2264	293.290293476115	1
0	2266	293.360651203961	2
0	2269	293.592481211746	1
0	2272	293.658565951708	2
0	2273	293.750698548795	1
0	2276	293.908915885844	0
0	2300	297.289428409828	1
0	2301	297.304537813284	0
0	2315	298.830385418322	1
0	2316	298.949379631671	0
0	2340	303.669305639747	1
0	2341	303.786730458893	0
0	2360	309.631636736553	1
0	2361	309.730880245446	0
0	2380	312.485336545812	1
0	2382	312.564420793633	2
0	2384	312.580147449017	3
0	2385	312.607386120766	2
0	2388	312.765603457815	1
0	2391	312.923820794864	0
0	2471	330.556723439955	1
0	2473	330.566702499598	2
0	2474	330.680068904736	1
0	2477	330.838286241785	0
0	2501	335.671445074541	1
0	2503	335.741026695301	2
0	2504	335.769864275176	1
0	2508	335.872754096068	2
0	2509	335.928081612225	1
0	2512	336.086298949274	0
0	2566	345.682107208402	1
0	2569	346.036132953889	0
0	2602	354.973001633477	1
0	2603	355.035120611275	0
0	2647	364.513903554339	1
0	2648	364.531636845884	0
0	2652	364.632838339038	1
0	2653	364.689854182933	0
0	2667	366.857169202013	1
0	2669	366.861280934235	2
0	2671	366.90030493116	3
0	2672	366.922005324638	2
0	2675	367.080222661687	1
0	2678	367.238439998736	0
0	2692	368.234210853851	1
0	2693	368.338021328305	0
0	2707	369.554231598021	1
0	2708	369.64133318556	0
0	2803	386.162696998511	1
0	2804	386.292334756343	0
0	2813	387.160239946495	1
0	2814	387.278100462113	0
0	2833	388.515405147353	1
0	2834	388.567684982834	0
0	2884	396.525109449504	1
0	2885	396.548880934701	0
0	2909	402.150057935809	1
0	2910	402.271704130224	0
0	2974	414.214877284266	1
0	2975	414.320127476054	0
0	3025	422.86218269204	1
0	3026	422.904752886462	0
0	3030	423.002557880819	1
0	3031	423.062970223511	0
0	3050	426.886307587476	1
0	3051	427.042283433744	0
0	3055	427.188862347034	1
0	3056	427.200500770793	0
0	3065	428.633496283182	1
0	3066	428.775923921049	0
0	3070	428.816975842351	1
0	3071	428.934141258098	0
0	3080	429.928652689589	1
0	3081	430.041637786066	0
0	3115	435.395678335517	1
0	3116	435.488446890313	0
0	3125	439.105684219164	1
0	3126	439.16900965145	0
0	3150	444.086068463174	1
0	3151	444.1246241577	0
0	3160	444.833824938806	1
0	3162	444.856543470038	2
0	3163	444.926013223259	1
0	3167	445.036534121076	2
0	3169	445.046336389356	3
0	3170	445.084230560308	2
0	3174	445.226407366107	3
0	3178	445.32544060251	4
0	3179	445.470884350392	3
0	3181	445.629101687441	2
0	3184	445.78731902449	1
0	3187	445.945536361539	0
0	3191	446.001701055017	1
0	3192	446.103753698588	0
0	3201	450.897077980588	1
0	3202	450.915443004617	0
0	3241	455.451680381907	1
0	3242	455.556322333227	0
0	3256	456.703931535522	1
0	3258	456.721743335517	2
0	3259	456.769802379179	1
0	3262	456.928019716228	0
0	3301	459.743785370725	1
0	3302	459.82695227656	0
0	3311	460.755368548702	1
0	3312	460.772777307778	0
0	3321	461.098699954142	1
0	3324	461.407755716418	0
0	3377	466.673596422711	1
0	3379	466.768102796459	2
0	3380	466.793225642237	1
0	3384	466.914264260122	2
0	3385	466.951442979286	1
0	3388	467.109660316335	0
0	3437	473.749339809842	1
0	3439	473.78875053421	2
0	3440	473.789884127758	1
0	3443	473.948101464807	0
0	3447	474.058439657286	1
0	3448	474.106318801856	0
0	3474	476.819158821497	1
0	3475	476.859518327987	0
0	3478	476.890852210971	1
0	3479	477.017735665036	0
0	3493	477.965910426233	1
0	3494	478.004004319526	0
0	3498	478.081484436035	1
0	3499	478.162221656575	0
0	3503	478.213692483696	1
0	3504	478.320438993624	0
0	3533	482.599170693732	1
0	3534	482.69977222181	0
0	3543	482.921343652751	1
0	3544	483.064999442004	0
0	3568	486.616361859048	1
0	3569	486.622837784184	0
0	3573	486.742062974276	1
0	3574	486.781055121233	0
0	3583	488.469217063423	1
0	3584	488.535160117842	0
0	3639	500.401004662878	1
0	3640	500.494060734789	0
0	3664	502.309922635618	1
0	3665	502.448516854101	0
0	3679	503.547360718635	1
0	3680	503.612118578231	0
0	3729	514.570308596307	1
0	3731	514.670995740585	2
0	3732	514.680338706815	1
0	3735	514.838556043864	0
0	3739	514.965515313367	1
0	3740	514.996773380913	0
0	3744	515.103241820167	1
0	3746	515.125555479893	2
0	3747	515.154990717962	1
0	3750	515.313208055011	0
0	3795	523.548584498347	1
0	3796	523.628333179342	0
0	3810	525.258411279322	1
0	3811	525.414410664792	0
0	3830	529.469094330382	1
0	3831	529.576268195613	0
0	3850	535.828976651844	1
0	3851	535.927062935521	0
0	3895	543.877984229747	1
0	3896	544.009271487405	0
0	3936	549.534380636945	1
0	3937	549.602913675911	0
0	3946	551.130216173893	1
0	3948	551.260317372569	2
0	3949	551.278265440929	1
0	3952	551.436482777978	0
0	3976	555.039420664451	1
0	3978	555.090981838473	2
0	3980	555.156691818535	3
0	3981	555.159759027295	2
0	3985	555.310054553707	3
0	3986	555.317976364344	2
0	3990	555.340426374619	3
0	3991	555.476193701393	2
0	3994	555.634411038442	1
0	3998	555.661364990333	2
0	3999	555.792628375491	1
0	4002	555.95084571254	0
0	4036	559.767635924884	1
0	4037	559.781368474415	0
0	4051	561.202795147948	1
0	4052	561.209530415194	0
0	4078	565.228988965145	1
0	4079	565.393191200289	0
0	4102	569.03537901002	1
0	4103	569.12548284094	0
0	4117	573.710451487326	1
0	4119	573.748894241925	2
0	4120	573.761184770294	1
0	4123	573.919402107343	0
0	4157	580.405451545286	1
0	4158	580.540174080102	0
0	4167	581.521749038167	1
0	4168	581.574516953456	0
0	4187	587.660557837062	1
0	4188	587.706168118909	0
0	4253	597.975404137743	1
0	4254	598.122459212636	0
0	4293	605.554263630881	1
0	4294	605.615191869247	0
0	4308	606.140240416903	1
0	4309	606.201295010885	0
0	4318	606.757067223712	1
0	4319	606.893551613485	0
0	4343	608.771092404279	1
0	4344	608.831809536716	0
0	4389	617.256441680998	1
0	4390	617.362001575633	0
0	4424	622.489591420443	1
0	4425	622.53884151515	0
0	4439	624.584321465727	1
0	4440	624.631522354249	0
0	4459	626.673660304835	1
0	4460	626.823219129597	0
0	4479	628.888671125693	1
0	4480	628.920697124916	0
0	4484	628.926313217524	1
0	4486	629.018155444899	2
0	4487	629.078914461965	1
0	4490	629.237131799014	0
0	4504	630.509617509513	1
0	4505	630.530268503984	0
0	4595	645.992487471426	1
0	4596	646.001140828899	0
0	4605	646.456106421274	1
0	4606	646.464981157183	0
0	4620	647.721505271889	1
0	4621	647.727140285266	0
0	4625	647.757048011348	1
0	4626	647.885357622315	0
0	4645	649.932866212562	1
0	4647	649.969230929106	2
0	4648	649.981963866139	1
0	4651	650.140181203188	0
0	4675	652.410644831676	1
0	4676	652.416048622378	0
0	4771	668.450764363474	1
0	4772	668.600831895204	0
0	4847	682.744110430957	1
0	4848	682.801561514875	0
0	4907	695.122754437266	1
0	4908	695.175719049552	0
0	4922	696.551860882269	1
0	4923	696.703068342254	0
0	4977	707.326485961396	1
0	4978	707.352145914547	0
0	4984	707.618064522296	1
0	4985	707.738799704631	0
0	4993	709.011783502331	1
0	4994	709.014123369941	0
0	5013	710.625494903636	1
0	5014	710.692774904403	0
0	5038	714.613403411521	1
0	5039	714.652744516354	0
0	5063	717.305698938963	1
0	5064	717.44463580733	0
0	5103	722.625946956178	1
0	5105	722.69241287927	2
0	5106	722.736334542882	1
0	5110	722.752771303188	2
0	5112	722.844369887784	3
0	5113	722.894551879931	2
0	5116	723.05276921698	1
0	5119	723.210986554029	0
0	5128	723.47545138015	1
0	5129	723.529703015166	0
0	5149	725.884033580135	1
0	5150	725.907985646568	0
0	5179	729.005024186718	1
0	5180	729.142062600359	0
0	5184	729.197083218141	1
0	5185	729.300279937408	0
0	5224	735.1720408191	1
0	5225	735.315659623983	0
0	5239	737.225110091818	1
0	5240	737.371091041687	0
0	5254	740.190755591889	1
0	5255	740.30839803593	0
0	5284	744.143571259471	1
0	5287	744.482541282294	0
0	5290	744.483748391759	1
0	5291	744.640758619343	0
0	5310	749.694777565027	1
0	5311	749.846159459774	0
0	5315	749.859695635334	1
0	5316	750.004376796823	0
0	5320	750.089384250762	1
0	5321	750.162594133872	0
0	5335	753.460187562544	1
0	5336	753.611221793314	0
0	5345	754.546030617036	1
0	5346	754.643486428209	0
0	5350	754.707429030522	1
0	5351	754.801703765258	0
0	5390	758.847867075064	1
0	5391	758.903239100823	0
0	5415	762.752808524146	1
0	5416	762.84286971482	0
0	5420	762.92598065265	1
0	5421	763.001087051869	0
0	5437	764.924953577291	1
0	5438	764.982417725797	0
0	5446	768.842232679289	1
0	5447	768.936131672622	0
0	5536	779.422772351963	1
0	5537	779.450411646523	0
0	5551	780.845407931297	1
0	5552	780.863198517081	0
0	5566	783.405333676049	1
0	5567	783.506539054041	0
0	5571	783.509698620983	1
0	5572	783.66475639109	0
0	5612	786.97234084031	1
0	5613	787.089634245977	0
0	5637	789.829162198436	1
0	5639	789.935351900787	2
0	5640	789.971577872404	1
0	5643	790.129795209453	0
0	5677	795.237790908654	1
0	5679	795.342360051161	2
0	5680	795.389011839937	1
0	5684	795.526360494834	2
0	5685	795.547229176986	1
0	5688	795.705446514035	0
0	5722	802.453070104558	1
0	5723	802.470311274958	0
0	5778	809.898521479463	1
0	5780	809.932117814355	2
0	5781	809.95286004959	1
0	5784	810.111077386639	0
0	5833	818.251759698264	1
0	5834	818.289268138671	0
0	5863	823.219522666664	1
0	5865	823.223813767172	2
0	5866	823.264128521327	1
0	5869	823.422345858376	0
0	5873	823.47154776536	1
0	5874	823.580563195425	0
0	5883	824.051789053108	1
0	5884	824.112665060683	0
0	5890	824.375445386048	1
0	5891	824.499318850767	0
0	5924	830.151341934959	1
0	5926	830.221120591876	2
0	5927	830.292950437513	1
0	5930	830.451167774562	0
0	5989	845.48590591319	1
0	5990	845.535999500892	0
0	6009	848.483876280561	1
0	6010	848.490677582457	0
0	6055	852.452481874747	1
0	6056	852.529937370857	0
0	6105	861.207555329323	1
0	6106	861.213037853727	0
0	6150	867.55503155278	1
0	6151	867.615246193846	0
0	6180	871.596663522739	1
0	6181	871.662102711155	0
0	6192	872.301884020568	1
0	6194	872.314349000444	2
0	6195	872.502538477201	1
0	6198	872.536180360397	2
0	6200	872.5684626828	3
0	6202	872.628419142256	4
0	6203	872.66075581425	3
0	6206	872.818973151299	2
0	6210	872.945146600232	3
0	6211	872.977190488348	2
0	6214	873.135407825397	1
0	6217	873.293625162446	0
0	6241	880.166287136253	1
0	6242	880.287462102701	0
0	6251	883.159888517715	1
0	6252	883.318060183739	0
0	6286	888.622936470787	1
0	6287	888.681617444727	0
0	6331	898.830632265919	1
0	6332	898.96132078054	0
0	6341	899.522158573913	1
0	6345	899.766976063525	2
0	6346	899.795700718924	1
0	6348	899.953918055973	0
0	6372	902.994219669697	1
0	6373	903.014566403531	0
0	6397	906.974461827029	1
0	6398	907.086059990415	0
0	6432	911.872127588781	1
0	6433	912.011172698824	0
0	6472	920.920050147167	1
0	6473	921.076278390123	0
0	6494	923.022042393473	1
0	6495	923.151610044758	0
0	6518	928.316763235827	1
0	6519	928.455197096143	0
0	6538	930.826592599689	1
0	6539	930.836520875253	0
0	6654	945.348661951287	1
0	6655	945.440039038231	0
0	6659	945.566117303362	1
0	6660	945.59825637528	0
0	6669	946.119150665676	1
0	6671	946.181219131751	2
0	6672	946.256845971295	1
0	6675	946.415063308344	0
0	6689	950.489203610068	1
0	6690	950.644857347335	0
0	6694	950.729085975114	1
0	6695	950.803074684384	0
0	6729	957.220701001336	1
0	6730	957.356402440994	0
0	6784	967.563437962299	1
0	6786	967.676746590664	2
0	6787	967.721333964031	1
0	6791	967.869632456941	2
0	6792	967.87955130108	1
0	6798	968.244966013385	2
0	6799	968.266205091164	1
0	6801	968.424422428213	0
0	6830	972.027517927583	1
0	6831	972.146615573724	0
0	6875	978.060906734254	1
0	6876	978.173691894663	0
0	6915	983.842974077818	1
0	6917	983.977252439402	2
0	6918	983.987789695096	1
0	6921	984.146007032145	0
0	6930	985.81305782178	1
0	6931	985.859175988747	0
0	6951	987.695071559582	1
0	6952	987.837560996603	0
0	6961	988.071709645749	1
0	6963	988.108692191642	2
0	6965	988.146762246163	3
0	6966	988.158998783301	2
0	6969	988.31721612035	1
0	6972	988.475433457399	0
0	7001	996.303748810143	1
0	7002	996.375660299356	0
1	5	0.550652497619	0.158217337049
1	10	1.910870783915	0.158217337049
1	15	3.836750170397	0.158217337049
1	20	4.329623182405	0.158217337049
1	25	5.840454672166	0.158217337049
1	32	6.407048088319	0.158217337049
1	35	6.565265425368	0.304298456284
1	42	7.277440189246	0.158217337049
1	47	7.435657526295	0.306103917241
1	50	7.593874863344	0.300796536073
1	57	7.801753764666	0.158217337049
1	60	7.959971101715	0.264182887591
1	65	8.513611159016	0.158217337049
1	70	8.836604435201	0.158217337049
1	75	9.703548560682	0.158217337049
1	80	11.210804454275	0.158217337049
1	85	11.460843239668	0.158217337049
1	90	11.894479681942	0.158217337049
1	95	12.90171410533	0.158217337049
1	100	13.306076472033	0.158217337049
1	107	14.671935997353	0.158217337049
1	110	14.830153334402	0.180040668682
1	117	15.102204368229	0.158217337049
1	120	15.260421705278	0.170430659534
1	125	15.795148824889	0.158217337049
1	132	16.253876087031	0.158217337049
1	135	16.41209342408	0.215338203157
1	140	17.572921522784	0.158217337049
1	145	18.421707788646	0.158217337049
1	150	18.729972944744	0.158217337049
1	156	19.189373408665	0.158217337049
1	161	20.65874792274	0.158217337049
1	166	21.704480216382	0.158217337049
1	171	22.447251108962	0.158217337049
1	176	23.529795751704	0.158217337049
1	181	24.901827708959	0.158217337049
1	186	26.004573015014	0.158217337049
1	191	26.776864352811	0.158217337049
1	198	27.123885125414	0.158217337049
1	203	27.282102462463	0.247896524503
1	206	27.440319799512	0.162697059846
1	211	28.007264306238	0.158217337049
1	216	29.522993389332	0.158217337049
1	221	29.790783109762	0.158217337049
1	226	30.830192340965	0.158217337049
1	233	31.43324858032	0.158217337049
1	236	31.591465917369	0.196452399861
1	241	32.818289323143	0.158217337049
1	248	33.499632824029	0.158217337049
1	253	33.657850161078	0.289808470488
1	256	33.816067498127	0.224784512232
1	263	34.244807455405	0.158217337049
1	266	34.403024792454	0.302810971665
1	271	34.999793578533	0.158217337049
1	276	35.52081948533	0.158217337049
1	281	36.675515358158	0.158217337049
1	286	37.991796795133	0.158217337049
1	291	39.78539685502	0.158217337049
1	296	40.633405739579	0.158217337049
1	301	41.059390680356	0.158217337049
1	309	41.44604447044	0.335374434252
1	312	41.604261807489	0.177284892885
1	319	41.814530832027	0.158217337049
1	322	41.972748169076	0.167707117256
1	329	44.116443375463	0.158217337049
1	332	44.274660712512	0.194743565246
1	337	44.945796430168	0.158217337049
1	344	45.255142175416	0.158217337049
1	347	45.413359512465	0.16706798028
1	352	48.541537706909	0.158217337049
1	357	49.549689008645	0.158217337049
1	362	49.880725308284	0.158217337049
1	367	50.142257322651	0.158217337049
1	372	51.745634566478	0.158217337049
1	377	53.007735431178	0.158217337049
1	382	54.874057435653	0.158217337049
1	391	57.148806856053	0.158217337049
1	394	57.307024193102	0.271737253632
1	399	57.465241530151	0.401756456136
1	404	57.6234588672	0.259492166413
1	407	57.781676204249	0.222858653502
1	412	62.086407483532	0.158217337049
1	417	62.573123194105	0.158217337049
1	422	63.083044753975	0.158217337049
1	427	63.354409291142	0.158217337049
1	432	65.956502174467	0.158217337049
1	439	67.655418652077	0.158217337049
1	442	67.813635989126	0.162875863229
1	449	68.09591736587	0.158217337049
1	454	68.254134702919	0.284980049885
1	458	68.640788493003	0.427574628757
1	463	71.99219465949	0.158217337049
1	468	72.20076172503	0.158217337049
1	473	72.889668167889	0.158217337049
1	478	73.51274232668	0.158217337049
1	483	73.713316662792	0.158217337049
1	488	74.517969783304	0.158217337049
1	495	74.938731260612	0.158217337049
1	498	75.096948597661	0.172232806471
1	503	75.393727780021	0.158217337049
1	508	75.844177275947	0.158217337049
1	513	76.254176486329	0.158217337049
1	518	76.6948592778	0.158217337049
1	523	77.009381609564	0.158217337049
1	528	78.326189109512	0.158217337049
1	533	78.953910639622	0.158217337049
1	538	79.296439378784	0.158217337049
1	543	80.209751594428	0.158217337049
1	548	81.008411082153	0.158217337049
1	553	81.610522602159	0.158217337049
1	558	83.284775192077	0.158217337049
1	563	83.544354514049	0.158217337049
1	568	84.757455495403	0.158217337049
1	573	85.145709997844	0.158217337049
1	578	85.504545902667	0.158217337049
1	583	86.018122081583	0.158217337049
1	588	86.228835118203	0.158217337049
1	593	87.647771826358	0.158217337049
1	600	88.099157643057	0.158217337049
1	603	88.257374980106	0.264186216029
1	609	89.047933547757	0.158217337049
1	614	89.40746636463	0.158217337049
1	619	90.368588605536	0.158217337049
1	624	90.609391826971	0.158217337049
1	629	90.86332496467	0.158217337049
1	636	91.677295399279	0.158217337049
1	645	91.835512736328	0.287220697816
1	648	91.993730073377	0.264665883326
1	651	92.151947410426	0.400575753636
1	654	92.310164747475	0.495122931996
1	661	92.493575444274	0.158217337049
1	668	92.651792781323	0.299722886557
1	671	92.810010118372	0.254104729416
1	676	92.968227455421	0.384495268361
1	679	93.12644479247	0.20189638088
1	684	94.103920644897	0.158217337049
1	689	94.808273499569	0.158217337049
1	694	95.418118068428	0.158217337049
1	701	97.945349000169	0.158217337049
1	704	98.103566337218	0.171042258306
1	709	98.518683131164	0.158217337049
1	714	99.082150046545	0.158217337049
1	719	99.955775108388	0.158217337049
1	724	101.180059668518	0.158217337049
1	729	101.473416466116	0.158217337049
1	734	102.057408764013	0.158217337049
1	739	102.511421607185	0.158217337049
1	744	102.898419977149	0.158217337049
1	749	103.158333173661	0.158217337049
1	754	103.395322855855	0.158217337049
1	760	103.798276075727	0.158217337049
1	765	104.494599635957	0.158217337049
1	770	104.940268201779	0.158217337049
1	775	105.365281313563	0.158217337049
1	780	105.822091573192	0.158217337049
1	785	106.013253813975	0.158217337049
1	790	106.637057984469	0.158217337049
1	797	107.297429222277	0.158217337049
1	800	107.455646559326	0.214593251621
1	805	108.775629134419	0.158217337049
1	812	110.525833719672	0.158217337049
1	815	110.684051056721	0.292742220925
1	820	111.316706989215	0.158217337049
1	827	115.972332641431	0.158217337049
1	832	116.13054997848	0.257775847356
1	837	116.288767315529	0.269235132791
1	840	116.446984652578	0.194178428745
1	845	117.020839153136	0.158217337049
1	850	117.517948671967	0.158217337049
1	855	117.808703668799	0.158217337049
1	860	118.595391103633	0.158217337049
1	865	119.100527996822	0.158217337049
1	872	119.520744558586	0.158217337049
1	875	119.678961895635	0.212535011723
1	880	120.791650163986	0.158217337049
1	885	121.821911192632	0.158217337049
1	892	122.038576774837	0.158217337049
1	895	122.196794111886	0.182177222504
1	900	122.362911331407	0.158217337049
1	907	123.259557349478	0.158217337049
1	911	123.646211139562	0.427405083363
1	916	124.134095694397	0.158217337049
1	923	124.3647208732	0.158217337049
1	928	124.522938210249	0.221630787714
1	931	124.681155547298	0.268597964637
1	936	125.771074311822	0.158217337049
1	943	126.709983838307	0.158217337049
1	946	126.868201175356	0.238342954386
1	951	129.128159209794	0.158217337049
1	956	130.309323328733	0.158217337049
1	961	132.992664682525	0.158217337049
1	968	133.946829008206	0.158217337049
1	971	134.105046345255	0.193648378163
1	976	135.499620947301	0.158217337049
1	981	138.251407319826	0.158217337049
1	986	139.850150715397	0.158217337049
1	991	140.554478655409	0.158217337049
1	996	141.19057587958	0.158217337049
1	1001	141.365962375658	0.158217337049
1	1006	141.945853777845	0.158217337049
1	1011	142.759622304947	0.158217337049
1	1018	143.686803342158	0.158217337049
1	1021	143.845020679207	0.250144998598
1	1026	144.038847396401	0.158217337049
1	1031	144.653852228447	0.158217337049
1	1036	144.841212348849	0.158217337049
1	1041	145.74451862155	0.158217337049
1	1046	146.098722868363	0.158217337049
1	1051	146.441841736503	0.158217337049
1	1056	146.646648668998	0.158217337049
1	1062	147.033302459082	0.170600950582
1	1067	147.780607959302	0.158217337049
1	1072	148.130546509424	0.158217337049
1	1077	149.148249707258	0.158217337049
1	1082	149.339677761939	0.158217337049
1	1087	149.930143331762	0.158217337049
1	1094	150.315699553871	0.158217337049
1	1097	150.47391689092	0.221916353261
1	1102	151.822724990913	0.158217337049
1	1107	152.233668456455	0.158217337049
1	1112	154.250425915482	0.158217337049
1	1117	154.666624485794	0.158217337049
1	1124	155.213769931705	0.158217337049
1	1127	155.371987268754	0.311600205031
1	1132	156.011173168028	0.158217337049
1	1139	156.508501490733	0.158217337049
1	1142	156.666718827782	0.180868123612
1	1147	157.622098420816	0.158217337049
1	1152	158.539426746188	0.158217337049
1	1159	158.950895578605	0.158217337049
1	1162	159.109112915654	0.222570611195
1	1167	160.12602725036	0.158217337049
1	1172	160.870018293224	0.158217337049
1	1179	162.473592705847	0.158217337049
1	1182	162.631810042896	0.199305499985
1	1189	162.823660201708	0.158217337049
1	1194	162.981877538757	0.307460173535
1	1197	163.140094875806	0.293190547257
1	1204	164.27464867674	0.158217337049
1	1207	164.432866013789	0.272884364034
1	1217	164.819519803873	0.193424981442
1	1222	164.977737140922	0.351344342221
1	1227	165.135954477971	0.473272386258
1	1230	165.29417181502	0.428137192501
1	1235	165.452389152069	0.319380974462
1	1238	165.610606489118	0.221717811479
1	1243	165.916607269279	0.158217337049
1	1248	166.109450861472	0.158217337049
1	1253	166.703029895431	0.158217337049
1	1260	167.787423891001	0.158217337049
1	1265	167.94564122805	0.2141564056
1	1270	168.103858565099	0.213074283059
1	1273	168.262075902148	0.212013580448
1	1278	168.477487744818	0.158217337049
1	1285	169.552958378219	0.158217337049
1	1288	169.711175715268	0.260645842206
1	1293	170.103873908506	0.158217337049
1	1298	170.698553736247	0.158217337049
1	1305	171.102801455545	0.158217337049
1	1308	171.261018792594	0.305496052234
1	1313	172.717669292628	0.158217337049
1	1318	173.257691412907	0.158217337049
1	1323	173.570926769993	0.158217337049
1	1328	174.971245383086	0.158217337049
1	1333	175.22696300738	0.158217337049
1	1338	176.7329881291	0.158217337049
1	1343	177.631382167343	0.158217337049
1	1348	178.607454925907	0.158217337049
1	1353	179.345280530667	0.158217337049
1	1358	179.686118411421	0.158217337049
1	1364	180.072772201505	0.172219373481
1	1369	181.027687102783	0.158217337049
1	1374	182.942851634679	0.158217337049
1	1379	183.718013504395	0.158217337049
1	1384	184.927979861722	0.158217337049
1	1391	185.130836499654	0.158217337049
1	1394	185.289053836703	0.267949871463
1	1399	185.814090852307	0.158217337049
1	1406	186.207386227672	0.158217337049
1	1409	186.365603564721	0.159887973468
1	1414	188.486761615938	0.158217337049
1	1421	189.267190343324	0.158217337049
1	1426	189.425407680373	0.261960810551
1	1429	189.583625017422	0.276777287426
1	1436	190.940425872333	0.158217337049
1	1439	191.098643209382	0.211880976318
1	1444	191.742235336601	0.158217337049
1	1449	193.377689534349	0.158217337049
1	1454	193.748017012886	0.158217337049
1	1459	193.960350285425	0.158217337049
1	1464	194.156238186021	0.158217337049
1	1469	194.32367428089	0.158217337049
1	1474	195.645989755529	0.158217337049
1	1479	195.812905386851	0.158217337049
1	1484	196.676249615249	0.158217337049
1	1489	196.877595204637	0.158217337049
1	1496	197.613858363063	0.158217337049
1	1499	197.772075700112	0.269987002136
1	1504	198.509989642503	0.158217337049
1	1509	200.151853651351	0.158217337049
1	1515	200.538507441435	0.203716325916
1	1520	201.431913692222	0.158217337049
1	1525	201.734262617475	0.158217337049
1	1530	202.246022037756	0.158217337049
1	1535	202.477721939156	0.158217337049
1	1540	202.93648241971	0.158217337049
1	1545	204.310345730644	0.158217337049
1	1550	204.533626389572	0.158217337049
1	1555	204.927005244359	0.158217337049
1	1562	205.172309894488	0.158217337049
1	1565	205.330527231537	0.232466346954
1	1570	205.791381352841	0.158217337049
1	1575	206.467079477022	0.158217337049
1	1580	206.664676754448	0.158217337049
1	1585	209.313992630906	0.158217337049
1	1590	209.673427513959	0.158217337049
1	1597	209.888388340325	0.158217337049
1	1600	210.046605677374	0.274783662582
1	1605	210.27899388117	0.158217337049
1	1610	211.554460766009	0.158217337049
1	1615	211.874208427356	0.158217337049
1	1620	212.080564604651	0.158217337049
1	1625	212.470363174014	0.158217337049
1	1630	212.926888055497	0.158217337049
1	1635	213.461695025059	0.158217337049
1	1640	213.624102347596	0.158217337049
1	1647	214.557715607705	0.158217337049
1	1650	214.715932944754	0.177620207025
1	1657	215.256213064941	0.158217337049
1	1660	215.41443040199	0.279523515525
1	1666	216.881348019832	0.158217337049
1	1671	217.096142403474	0.158217337049
1	1676	218.084644846996	0.158217337049
1	1681	218.635965552945	0.158217337049
1	1688	218.910206107158	0.158217337049
1	1691	219.068423444207	0.221787400291
1	1698	219.89924578315	0.158217337049
1	1701	220.057463120199	0.289232573102
1	1708	221.541420946528	0.158217337049
1	1711	221.699638283577	0.273316156048
1	1716	221.906382699186	0.158217337049
1	1721	223.596866993647	0.158217337049
1	1726	224.351233948749	0.158217337049
1	1733	224.664718566477	0.158217337049
1	1736	224.822935903526	0.193428981523
1	1741	226.804908236551	0.158217337049
1	1746	227.48362172698	0.158217337049
1	1751	227.918063951739	0.158217337049
1	1758	228.272593603967	0.158217337049
1	1761	228.430810941016	0.221117587256
1	1766	229.447423797117	0.158217337049
1	1771	230.028326889843	0.158217337049
1	1776	231.964338678008	0.158217337049
1	1781	232.416973433231	0.158217337049
1	1786	232.951975733626	0.158217337049
1	1791	234.73872766941	0.158217337049
1	1796	235.897344049197	0.158217337049
1	1803	236.157241479131	0.158217337049
1	1806	236.31545881618	0.279959506845
1	1811	237.348602087535	0.158217337049
1	1817	237.735255877619	0.348742775064
1	1822	238.714772399247	0.158217337049
1	1827	240.60557414028	0.158217337049
1	1834	241.459315871508	0.158217337049
1	1837	241.617533208557	0.236368585803
1	1842	242.196062086391	0.158217337049
1	1847	242.652590192255	0.158217337049
1	1852	243.107684717281	0.158217337049
1	1859	244.158910351151	0.158217337049
1	1862	244.3171276882	0.180090795574
1	1869	244.925207092717	0.158217337049
1	1872	245.083424429766	0.203393582179
1	1877	245.674324226598	0.158217337049
1	1884	246.303346957589	0.158217337049
1	1887	246.461564294638	0.270931958502
1	1892	246.929818968222	0.158217337049
1	1897	247.187860768293	0.158217337049
1	1902	249.433294191305	0.158217337049
1	1907	249.653993302203	0.158217337049
1	1912	250.00587984001	0.158217337049
1	1919	250.566810861514	0.158217337049
1	1922	250.725028198563	0.159730043802
1	1927	251.354109397616	0.158217337049
1	1932	251.830160905079	0.158217337049
1	1937	252.503245488111	0.158217337049
1	1942	253.512021680056	0.158217337049
1	1947	253.950079676021	0.158217337049
1	1954	254.330620093466	0.158217337049
1	1957	254.488837430515	0.282677983627
1	1964	254.679874041984	0.158217337049
1	1970	255.066527832068	0.440599074632
1	1973	255.224745169117	0.39319694926
1	1978	255.760551730096	0.158217337049
1	1983	257.439314675639	0.158217337049
1	1990	257.72561677706	0.158217337049
1	1993	257.883834114109	0.232042892977
1	1998	258.609543853267	0.158217337049
1	2003	259.170505517401	0.158217337049
1	2010	259.386597543601	0.158217337049
1	2015	259.54481488065	0.209066296046
1	2018	259.703032217699	0.286190377591
1	2025	260.856921054943	0.158217337049
1	2028	261.015138391992	0.267924213455
1	2035	261.345021346021	0.158217337049
1	2038	261.50323868307	0.179407572394
1	2043	261.877740287615	0.158217337049
1	2048	263.252063958631	0.158217337049
1	2053	263.549304773097	0.158217337049
1	2058	264.864465416175	0.158217337049
1	2063	265.185811685773	0.158217337049
1	2068	265.805748998536	0.158217337049
1	2075	266.354100968385	0.158217337049
1	2078	266.512318305434	0.269644174711
1	2083	269.402316780199	0.158217337049
1	2090	269.797580151613	0.158217337049
1	2095	269.955797488662	0.313294608493
1	2098	270.114014825711	0.270647676722
1	2105	270.746022291464	0.158217337049
1	2108	270.904239628513	0.244522932974
1	2115	272.064400878336	0.158217337049
1	2119	272.45105466842	0.486114698689
1	2124	273.219140702056	0.158217337049
1	2129	273.537240501	0.158217337049
1	2134	274.818461770782	0.158217337049
1	2139	275.132981156239	0.158217337049
1	2144	276.390569672444	0.158217337049
1	2149	277.204553212282	0.158217337049
1	2154	278.565127221101	0.158217337049
1	2159	278.986937612241	0.158217337049
1	2164	279.794688221411	0.158217337049
1	2169	280.182448002513	0.158217337049
1	2176	280.851255696041	0.158217337049
1	2179	281.00947303309	0.191787857336
1	2186	281.208222009609	0.158217337049
1	2189	281.366439346658	0.24918451865
1	2196	281.79264939259	0.158217337049
1	2199	281.950866729639	0.265765195426
1	2204	283.251833190056	0.158217337049
1	2209	283.676556509671	0.158217337049
1	2214	284.570967909906	0.158217337049
1	2219	285.795582786111	0.158217337049
1	2226	287.563769993717	0.158217337049
1	2231	287.721987330766	0.245395677598
1	2236	287.880204667815	0.275468469864
1	2239	288.038422004864	0.302931718562
1	2244	288.600955532154	0.158217337049
1	2249	290.902019082072	0.158217337049
1	2254	292.57884209419	0.158217337049
1	2259	293.042800137371	0.158217337049
1	2268	293.364044758711	0.158217337049
1	2274	293.750698548795	0.46040507268
1	2277	293.908915885844	0.548264681883
1	2280	294.067133222893	0.408567271185
1	2285	294.942094065298	0.158217337049
1	2290	296.345830727104	0.158217337049
1	2295	296.828641721292	0.158217337049
1	2302	297.304537813284	0.158217337049
1	2305	297.462755150333	0.173326740505
1	2310	298.7438065715	0.158217337049
1	2317	298.949379631671	0.158217337049
1	2320	299.10759696872	0.277211550398
1	2325	300.246287896329	0.158217337049
1	2330	303.063538603834	0.158217337049
1	2335	303.228258960821	0.158217337049
1	2342	303.786730458893	0.158217337049
1	2345	303.944947795942	0.275642156195
1	2350	306.757490468502	0.158217337049
1	2355	307.251373613241	0.158217337049
1	2362	309.730880245446	0.158217337049
1	2365	309.889097582495	0.257460845942
1	2370	311.089232340161	0.158217337049
1	2375	311.706601591681	0.158217337049
1	2386	312.607386120766	0.158217337049
1	2389	312.765603457815	0.280266912003
1	2392	312.923820794864	0.359400001231
1	2395	313.082038131913	0.501890682896
1	2400	316.381569321055	0.158217337049
1	2405	316.996008041888	0.158217337049
1	2410	319.411647680051	0.158217337049
1	2415	319.658632622486	0.158217337049
1	2421	321.055175596058	0.158217337049
1	2426	322.755748447931	0.158217337049
1	2431	325.423027601088	0.158217337049
1	2436	325.792744201439	0.158217337049
1	2441	326.117652855725	0.158217337049
1	2446	327.482760644563	0.158217337049
1	2451	328.033639088588	0.158217337049
1	2456	329.038693826822	0.158217337049
1	2461	329.384922249682	0.158217337049
1	2466	329.64830292352	0.158217337049
1	2475	330.680068904736	0.158217337049
1	2478	330.838286241785	0.28156280183
1	2481	330.996503578834	0.429801079236
1	2486	332.345715731105	0.158217337049
1	2491	333.020245255177	0.158217337049
1	2496	335.400644675918	0.158217337049
1	2505	335.769864275176	0.158217337049
1	2510	335.928081612225	0.256636537684
1	2513	336.086298949274	0.345272253973
1	2516	336.244516286323	0.371762190255
1	2521	336.640016344747	0.158217337049
1	2526	337.104938944485	0.158217337049
1	2531	338.559483381051	0.158217337049
1	2536	339.404213099723	0.158217337049
1	2541	340.007171839273	0.158217337049
1	2546	340.750723878403	0.158217337049
1	2551	341.402302686324	0.158217337049
1	2556	341.866776796962	0.158217337049
1	2561	342.144221610619	0.158217337049
1	2568	345.807696500854	0.158217337049
1	2572	346.194350290938	0.512243082536
1	2577	346.538071239627	0.158217337049
1	2582	350.099717313971	0.158217337049
1	2587	350.568124475876	0.158217337049
1	2592	350.907417858183	0.158217337049
1	2597	353.846983019365	0.158217337049
1	2604	355.035120611275	0.158217337049
1	2607	355.193337948324	0.220336314847
1	2612	356.246967249742	0.158217337049
1	2617	356.740130056854	0.158217337049
1	2622	357.382966903367	0.158217337049
1	2627	358.442581977075	0.158217337049
1	2632	359.000936526333	0.158217337049
1	2637	362.034271877007	0.158217337049
1	2642	363.982749525823	0.158217337049
1	2649	364.531636845884	0.158217337049
1	2654	364.689854182933	0.175950628594
1	2657	364.848071519982	0.215233180944
1	2662	365.583120740669	0.158217337049
1	2673	366.922005324638	0.158217337049
1	2676	367.080222661687	0.223053459674
1	2679	367.238439998736	0.377159064501
1	2682	367.396657335785	0.496352404625
1	2687	367.839647104813	0.158217337049
1	2694	368.338021328305	0.158217337049
1	2697	368.496238665354	0.262027811503
1	2702	369.303889876671	0.158217337049
1	2709	369.64133318556	0.158217337049
1	2712	369.799550522609	0.245318924588
1	2717	371.021947547862	0.158217337049
1	2723	371.507140252867	0.158217337049
1	2728	372.171184079114	0.158217337049
1	2733	372.825362376203	0.158217337049
1	2738	373.026492302842	0.158217337049
1	2743	374.034663316283	0.158217337049
1	2748	374.526524615259	0.158217337049
1	2753	374.721398674329	0.158217337049
1	2758	376.423727260234	0.158217337049
1	2763	376.899822009169	0.158217337049
1	2768	378.556590528283	0.158217337049
1	2773	378.724783914446	0.158217337049
1	2778	380.130785353857	0.158217337049
1	2783	380.328707529538	0.158217337049
1	2788	382.424134157208	0.158217337049
1	2793	384.497700920986	0.158217337049
1	2798	384.748599218036	0.158217337049
1	2805	386.292334756343	0.158217337049
1	2808	386.450552093392	0.287855094881
1	2815	387.278100462113	0.158217337049
1	2818	387.436317799162	0.276077852667
1	2823	387.751455959117	0.158217337049
1	2828	387.982790239837	0.158217337049
1	2835	388.567684982834	0.158217337049
1	2838	388.725902319883	0.21049717253
1	2843	390.786035943502	0.158217337049
1	2848	391.699752405718	0.158217337049
1	2853	391.946705870043	0.158217337049
1	2858	392.13283524009	0.158217337049
1	2863	392.404642983931	0.158217337049
1	2868	392.807848314178	0.158217337049
1	2874	395.702759997548	0.158217337049
1	2879	396.353013060162	0.158217337049
1	2886	396.548880934701	0.158217337049
1	2889	396.70709827175	0.181988822246
1	2894	397.251921795007	0.158217337049
1	2899	398.141038518924	0.158217337049
1	2904	399.401977513888	0.158217337049
1	2911	402.271704130224	0.158217337049
1	2914	402.429921467273	0.279863531464
1	2919	402.938748644106	0.158217337049
1	2924	403.478940659263	0.158217337049
1	2929	404.523176669376	0.158217337049
1	2934	404.847642560188	0.158217337049
1	2939	406.092609549536	0.158217337049
1	2944	409.035807786442	0.158217337049
1	2949	409.630724923485	0.158217337049
1	2954	409.884935744474	0.158217337049
1	2959	410.699668568922	0.158217337049
1	2964	412.098132901125	0.158217337049
1	2969	413.931338926387	0.158217337049
1	2976	414.320127476054	0.158217337049
1	2979	414.478344813103	0.263467528837
1	2984	414.755498816798	0.158217337049
1	2989	417.338848124602	0.158217337049
1	2994	418.480253318301	0.158217337049
1	2999	419.271523955471	0.158217337049
1	3004	420.42305460946	0.158217337049
1	3009	421.707754049659	0.158217337049
1	3014	422.097566851698	0.158217337049
1	3019	422.419678439071	0.158217337049
1	3027	422.904752886462	0.158217337049
1	3032	423.062970223511	0.200787531471
1	3035	423.22118756056	0.218629679741
1	3040	424.049115034195	0.158217337049
1	3045	424.995838799548	0.158217337049
1	3052	427.042283433744	0.158217337049
1	3057	427.200500770793	0.314193183317
1	3060	427.358718107842	0.169855760808
1	3067	428.775923921049	0.158217337049
1	3072	428.934141258098	0.300644974916
1	3075	429.092358595147	0.275382752796
1	3082	430.041637786066	0.158217337049
1	3085	430.199855123115	0.271202433526
1	3090	430.806176867449	0.158217337049
1	3095	432.76773057929	0.158217337049
1	3100	434.048785533771	0.158217337049
1	3105	434.49589968768	0.158217337049
1	3110	435.24503617184	0.158217337049
1	3117	435.488446890313	0.158217337049
1	3120	435.646664227362	0.250985891845
1	3127	439.16900965145	0.158217337049
1	3130	439.327226988499	0.221542769335
1	3135	440.786441832662	0.158217337049
1	3140	442.088257242318	0.158217337049
1	3145	443.86564058266	0.158217337049
1	3152	444.1246241577	0.158217337049
1	3155	444.282841494749	0.196773031575
1	3164	444.926013223259	0.158217337049
1	3171	445.084230560308	0.250405621502
1	3176	445.242447897357	0.385904427319
1	3182	445.629101687441	0.592567566365
1	3185	445.78731902449	0.740982635134
1	3188	445.945536361539	0.719128995432
1	3193	446.103753698588	0.778313096078
1	3196	446.261971035637	0.26026998062
1	3203	450.915443004617	0.158217337049
1	3206	451.073660341666	0.176582361078
1	3211	451.893202783065	0.158217337049
1	3216	452.355151996965	0.158217337049
1	3221	453.064752443953	0.158217337049
1	3226	453.493580289456	0.158217337049
1	3231	454.822998563813	0.158217337049
1	3236	455.380789175558	0.158217337049
1	3243	455.556322333227	0.158217337049
1	3246	455.714539670276	0.262859288369
1	3251	455.943319608087	0.158217337049
1	3260	456.769802379179	0.158217337049
1	3263	456.928019716228	0.224088180706
1	3266	457.086237053277	0.36449371776
1	3271	457.727825537289	0.158217337049
1	3276	458.078151899128	0.158217337049
1	3281	458.759078392733	0.158217337049
1	3286	459.069904922623	0.158217337049
1	3291	459.413672155966	0.158217337049
1	3296	459.582512024604	0.158217337049
1	3303	459.82695227656	0.158217337049
1	3306	459.985169613609	0.241384242884
1	3313	460.772777307778	0.158217337049
1	3316	460.930994644827	0.175626096125
1	3323	461.179319263383	0.158217337049
1	3327	461.565973053467	0.467273099325
1	3332	461.760713562067	0.158217337049
1	3337	462.002518405095	0.158217337049
1	3342	463.036968730652	0.158217337049
1	3347	463.222502071095	0.158217337049
1	3352	463.888389109501	0.158217337049
1	3357	464.374081211608	0.158217337049
1	3362	465.617532250838	0.158217337049
1	3367	465.791067451782	0.158217337049
1	3372	466.044181020752	0.158217337049
1	3381	466.793225642237	0.158217337049
1	3386	466.951442979286	0.277846556575
1	3389	467.109660316335	0.341557519876
1	3392	467.267877653384	0.353613393262
1	3397	467.609739306154	0.158217337049
1	3402	467.892015417944	0.158217337049
1	3407	469.708079128286	0.158217337049
1	3412	470.98664297809	0.158217337049
1	3417	471.194363533106	0.158217337049
1	3422	472.291249451836	0.158217337049
1	3427	472.776345060614	0.158217337049
1	3432	473.43365325932	0.158217337049
1	3441	473.789884127758	0.158217337049
1	3444	473.948101464807	0.198761654965
1	3449	474.106318801856	0.317568267646
1	3452	474.264536138905	0.206096481619
1	3457	474.922172251007	0.158217337049
1	3462	476.185728881051	0.158217337049
1	3467	476.43328962423	0.158217337049
1	3472	476.631081874952	0.158217337049
1	3480	477.017735665036	0.198576843539
1	3483	477.175953002085	0.285100791114
1	3488	477.550458283018	0.158217337049
1	3495	478.004004319526	0.158217337049
1	3500	478.162221656575	0.196311230342
1	3505	478.320438993624	0.238954557589
1	3508	478.478656330673	0.264963846977
1	3513	479.197342967181	0.158217337049
1	3518	479.509417753274	0.158217337049
1	3523	479.697112097883	0.158217337049
1	3528	481.024643495364	0.158217337049
1	3535	482.69977222181	0.158217337049
1	3538	482.857989558859	0.258818865127
1	3545	483.064999442004	0.158217337049
1	3548	483.223216779053	0.301873126302
1	3553	483.858639205896	0.158217337049
1	3558	484.28040043087	0.158217337049
1	3563	485.813950755203	0.158217337049
1	3570	486.622837784184	0.158217337049
1	3575	486.781055121233	0.164693262185
1	3578	486.939272458282	0.197209484006
1	3585	488.535160117842	0.158217337049
1	3588	488.693377454891	0.224160391468
1	3593	490.67519580665	0.158217337049
1	3598	491.133274311823	0.158217337049
1	3603	494.34287195472	0.158217337049
1	3608	494.671611881359	0.158217337049
1	3613	494.973253404545	0.158217337049
1	3618	495.150135967351	0.158217337049
1	3623	495.955105042508	0.158217337049
1	3629	499.577739951803	0.158217337049
1	3634	500.030271256898	0.158217337049
1	3641	500.494060734789	0.158217337049
1	3644	500.652278071838	0.25127340896
1	3649	501.25740754971	0.158217337049
1	3654	501.668042267906	0.158217337049
1	3659	501.935888289699	0.158217337049
1	3666	502.448516854101	0.158217337049
1	3669	502.60673419115	0.296811555532
1	3674	503.279067388477	0.158217337049
1	3681	503.612118578231	0.158217337049
1	3684	503.77033591528	0.222975196645
1	3689	504.124732284078	0.158217337049
1	3694	508.376787328635	0.158217337049
1	3699	508.607382961207	0.158217337049
1	3704	508.812086515562	0.158217337049
1	3709	510.548916469569	0.158217337049
1	3714	511.405629883051	0.158217337049
1	3719	512.135908570522	0.158217337049
1	3724	512.311396408222	0.158217337049
1	3733	514.680338706815	0.158217337049
1	3736	514.838556043864	0.268247447557
1	3741	514.996773380913	0.325777640328
1	3748	515.154990717962	0.189475404595
1	3751	515.313208055011	0.209966234844
1	3754	515.47142539206	0.345869912167
1	3759	517.488432466198	0.158217337049
1	3764	517.754885372281	0.158217337049
1	3769	519.147673962816	0.158217337049
1	3774	520.786645615949	0.158217337049
1	3780	521.189402569146	0.158217337049
1	3785	522.57542408575	0.158217337049
1	3790	523.341602693318	0.158217337049
1	3797	523.628333179342	0.158217337049
1	3800	523.786550516391	0.237966018044
1	3805	524.673479692193	0.158217337049
1	3812	525.414410664792	0.158217337049
1	3815	525.572628001841	0.314216722519
1	3820	526.293732539272	0.158217337049
1	3825	527.09804221603	0.158217337049
1	3832	529.576268195613	0.158217337049
1	3835	529.734485532662	0.26539120228
1	3840	532.566183535526	0.158217337049
1	3845	533.839701476665	0.158217337049
1	3852	535.927062935521	0.158217337049
1	3855	536.08528027257	0.256303620726
1	3860	536.601773365777	0.158217337049
1	3865	539.581467263346	0.158217337049
1	3870	540.005565547376	0.158217337049
1	3875	540.343077663353	0.158217337049
1	3880	541.493690712857	0.158217337049
1	3885	541.721827407308	0.158217337049
1	3890	543.429015264357	0.158217337049
1	3897	544.009271487405	0.158217337049
1	3900	544.167488824454	0.289504594707
1	3905	544.744070984558	0.158217337049
1	3910	545.580979660229	0.158217337049
1	3915	546.862687346222	0.158217337049
1	3920	547.242869009541	0.158217337049
1	3925	547.51564929657	0.158217337049
1	3931	548.067368942462	0.158217337049
1	3938	549.602913675911	0.158217337049
1	3941	549.76113101296	0.226750376015
1	3950	551.278265440929	0.158217337049
1	3953	551.436482777978	0.306266604085
1	3956	551.594700115027	0.334382742458
1	3961	551.782307760077	0.158217337049
1	3966	552.641940472101	0.158217337049
1	3971	553.850141513447	0.158217337049
1	3982	555.159759027295	0.158217337049
1	3987	555.317976364344	0.278555699893
1	3992	555.476193701393	0.38521186292
1	3995	555.634411038442	0.477719219907
1	4000	555.792628375491	0.482573821784
1	4003	555.95084571254	0.610419337921
1	4006	556.109063049589	0.447698059256
1	4011	556.816114752261	0.158217337049
1	4016	557.233485274906	0.158217337049
1	4021	557.477784351786	0.158217337049
1	4026	558.961981793591	0.158217337049
1	4031	559.317465939741	0.158217337049
1	4038	559.781368474415	0.158217337049
1	4041	559.939585811464	0.17194988658
1	4046	560.389414694705	0.158217337049
1	4053	561.209530415194	0.158217337049
1	4056	561.367747752243	0.164952604295
1	4061	562.773903151283	0.158217337049
1	4066	563.838227921901	0.158217337049
1	4071	564.455119405846	0.158217337049
1	4076	565.164754747254	0.158217337049
1	4082	565.551408537338	0.322419572193
1	4087	566.059768527731	0.158217337049
1	4092	566.485146850536	0.158217337049
1	4097	568.565326444486	0.158217337049
1	4104	569.12548284094	0.158217337049
1	4107	569.283700177989	0.248321167969
1	4112	571.618767989238	0.158217337049
1	4121	573.761184770294	0.158217337049
1	4124	573.919402107343	0.208950620017
1	4127	574.077619444392	0.328725202467
1	4132	575.317364937321	0.158217337049
1	4137	578.452740625023	0.158217337049
1	4142	578.882385563814	0.158217337049
1	4147	579.072984861487	0.158217337049
1	4152	579.748637979086	0.158217337049
1	4159	580.540174080102	0.158217337049
1	4162	580.698391417151	0.292939871865
1	4169	581.574516953456	0.158217337049
1	4172	581.732734290505	0.210985252338
1	4177	582.423141187849	0.158217337049
1	4182	583.743934472899	0.158217337049
1	4189	587.706168118909	0.158217337049
1	4192	587.864385455958	0.203827618896
1	4197	588.088344977546	0.158217337049
1	4202	588.356507517288	0.158217337049
1	4207	588.665546918605	0.158217337049
1	4212	589.393458510504	0.158217337049
1	4217	589.786868523808	0.158217337049
1	4222	590.274359984337	0.158217337049
1	4227	591.678562950121	0.158217337049
1	4233	593.357521749569	0.158217337049
1	4238	593.717066254475	0.158217337049
1	4243	594.740419427471	0.158217337049
1	4248	597.339219914146	0.158217337049
1	4255	598.122459212636	0.158217337049
1	4258	598.280676549685	0.305272411942
1	4263	598.598388740095	0.158217337049
1	4268	598.818221044737	0.158217337049
1	4273	602.029395956565	0.158217337049
1	4278	603.123867391343	0.158217337049
1	4283	603.887820531785	0.158217337049
1	4288	605.112218103277	0.158217337049
1	4295	605.615191869247	0.158217337049
1	4298	605.773409206296	0.219145575415
1	4303	605.970042012928	0.158217337049
1	4310	606.201295010885	0.158217337049
1	4313	606.359512347934	0.219271931031
1	4320	606.893551613485	0.158217337049
1	4323	607.051768950534	0.294701726822
1	4328	607.222071034617	0.158217337049
1	4333	607.498009925553	0.158217337049
1	4338	607.98367713346	0.158217337049
1	4345	608.831809536716	0.158217337049
1	4348	608.990026873765	0.218934469486
1	4353	609.165605223264	0.158217337049
1	4358	609.586069933055	0.158217337049
1	4363	611.18284910047	0.158217337049
1	4368	612.41518972252	0.158217337049
1	4373	615.109482897711	0.158217337049
1	4378	615.657562992053	0.158217337049
1	4384	616.839539419852	0.158217337049
1	4391	617.362001575633	0.158217337049
1	4394	617.520218912682	0.263777231684
1	4399	618.229810073728	0.158217337049
1	4404	618.41053709002	0.158217337049
1	4409	618.601202772759	0.158217337049
1	4414	619.766126515123	0.158217337049
1	4419	620.843434132043	0.158217337049
1	4426	622.53884151515	0.158217337049
1	4429	622.697058852199	0.207467431756
1	4434	624.278700139226	0.158217337049
1	4441	624.631522354249	0.158217337049
1	4444	624.789739691298	0.205418225571
1	4449	625.391873479887	0.158217337049
1	4454	625.690572332803	0.158217337049
1	4461	626.823219129597	0.158217337049
1	4464	626.981436466646	0.307776161811
1	4469	627.523545272011	0.158217337049
1	4474	628.371407833965	0.158217337049
1	4481	628.920697124916	0.158217337049
1	4488	629.078914461965	0.190243336272
1	4491	629.237131799014	0.31081858149
1	4494	629.395349136063	0.377193691164
1	4499	629.741994519804	0.158217337049
1	4506	630.530268503984	0.158217337049
1	4509	630.688485841033	0.17886833152
1	4514	632.053969990873	0.158217337049
1	4519	632.893639908107	0.158217337049
1	4524	633.416260108308	0.158217337049
1	4529	633.630875944915	0.158217337049
1	4535	634.210515435386	0.158217337049
1	4540	635.847676693232	0.158217337049
1	4545	636.583818529158	0.158217337049
1	4550	637.357993218532	0.158217337049
1	4555	639.065711644495	0.158217337049
1	4560	639.905379866611	0.158217337049
1	4565	640.644857497328	0.158217337049
1	4570	640.905044943965	0.158217337049
1	4575	641.624728645968	0.158217337049
1	4580	642.00136380302	0.158217337049
1	4585	644.133675305591	0.158217337049
1	4590	644.55957191657	0.158217337049
1	4597	646.001140828899	0.158217337049
1	4600	646.159358165948	0.166870694522
1	4607	646.464981157183	0.158217337049
1	4610	646.623198494232	0.167092072958
1	4615	646.833145657425	0.158217337049
1	4622	647.727140285266	0.158217337049
1	4627	647.885357622315	0.163852350426
1	4630	648.043574959364	0.286526948016
1	4635	649.043207239731	0.158217337049
1	4640	649.492689147136	0.158217337049
1	4649	649.981963866139	0.158217337049
1	4652	650.140181203188	0.207314990626
1	4655	650.298398540237	0.329167611131
1	4660	650.470619292312	0.158217337049
1	4665	650.645925378286	0.158217337049
1	4670	651.667098568566	0.158217337049
1	4677	652.416048622378	0.158217337049
1	4680	652.574265959427	0.163621127751
1	4686	653.19367738306	0.158217337049
1	4691	653.421078733096	0.158217337049
1	4696	653.617660025165	0.158217337049
1	4701	654.050251908564	0.158217337049
1	4706	654.264124928222	0.158217337049
1	4711	655.165894586666	0.158217337049
1	4716	655.945592425605	0.158217337049
1	4721	656.414233989103	0.158217337049
1	4726	656.902745353438	0.158217337049
1	4731	658.234281553856	0.158217337049
1	4736	659.834178149068	0.158217337049
1	4741	660.927090003312	0.158217337049
1	4746	661.747242631055	0.158217337049
1	4751	663.853936565526	0.158217337049
1	4756	665.037056800926	0.158217337049
1	4761	666.278323375946	0.158217337049
1	4766	667.744840581369	0.158217337049
1	4773	668.600831895204	0.158217337049
1	4776	668.759049232253	0.308284868779
1	4781	670.319657304184	0.158217337049
1	4786	671.673608833044	0.158217337049
1	4791	672.393693214334	0.158217337049
1	4796	674.867479246419	0.158217337049
1	4801	675.508775497019	0.158217337049
1	4806	676.185158176435	0.158217337049
1	4811	677.615912180531	0.158217337049
1	4816	678.280372265592	0.158217337049
1	4821	678.450847143884	0.158217337049
1	4826	679.59193237861	0.158217337049
1	4831	679.969742465427	0.158217337049
1	4837	680.462344401672	0.158217337049
1	4842	680.999973063835	0.158217337049
1	4849	682.801561514875	0.158217337049
1	4852	682.959778851924	0.215668420967
1	4857	684.77738698478	0.158217337049
1	4862	686.008172456522	0.158217337049
1	4867	688.053698685146	0.158217337049
1	4872	689.771163678503	0.158217337049
1	4877	690.419366604399	0.158217337049
1	4882	691.937489451624	0.158217337049
1	4887	693.814368078449	0.158217337049
1	4892	694.025980454027	0.158217337049
1	4897	694.485025127896	0.158217337049
1	4902	694.721560718601	0.158217337049
1	4909	695.175719049552	0.158217337049
1	4912	695.333936386601	0.211181949335
1	4917	696.400452174616	0.158217337049
1	4924	696.703068342254	0.158217337049
1	4927	696.861285679303	0.309424797034
1	4932	697.097051291144	0.158217337049
1	4937	697.32335268716	0.158217337049
1	4942	699.172498427478	0.158217337049
1	4947	699.679395375984	0.158217337049
1	4952	699.922158570982	0.158217337049
1	4957	700.890831088892	0.158217337049
1	4962	701.588461248205	0.158217337049
1	4967	704.758476682387	0.158217337049
1	4972	705.833136332989	0.158217337049
1	4979	707.352145914547	0.158217337049
1	4982	707.510363251596	0.1838772902
1	4988	707.89701704168	0.278952519384
1	4995	709.014123369941	0.158217337049
1	4998	709.17234070699	0.160557204659
1	5003	709.464842282864	0.158217337049
1	5008	709.802186492301	0.158217337049
1	5015	710.692774904403	0.158217337049
1	5018	710.850992241452	0.225497337816
1	5023	711.122852942017	0.158217337049
1	5028	711.420384681774	0.158217337049
1	5033	713.55664856473	0.158217337049
1	5040	714.652744516354	0.158217337049
1	5043	714.810961853403	0.197558441882
1	5048	715.270725662585	0.158217337049
1	5053	715.74496184809	0.158217337049
1	5058	716.081476952735	0.158217337049
1	5065	717.44463580733	0.158217337049
1	5068	717.602853144379	0.297154205416
1	5073	717.89721161043	0.158217337049
1	5078	718.066269831478	0.158217337049
1	5083	718.269508413889	0.158217337049
1	5088	719.003914415641	0.158217337049
1	5093	720.602074421029	0.158217337049
1	5098	722.032738831826	0.158217337049
1	5107	722.736334542882	0.158217337049
1	5114	722.894551879931	0.268604923753
1	5117	723.05276921698	0.36035633771
1	5120	723.210986554029	0.458215250841
1	5123	723.369203891078	0.524834003294
1	5130	723.529703015166	0.158217337049
1	5133	723.687920352215	0.212468972065
1	5139	724.224958435757	0.158217337049
1	5144	725.124806749234	0.158217337049
1	5151	725.907985646568	0.158217337049
1	5154	726.066202983617	0.182169403482
1	5159	726.415584047457	0.158217337049
1	5164	726.745012468069	0.158217337049
1	5169	727.222207335628	0.158217337049
1	5174	728.152950429295	0.158217337049
1	5181	729.142062600359	0.158217337049
1	5186	729.300279937408	0.29525575069
1	5189	729.458497274457	0.261414056316
1	5194	730.528038795107	0.158217337049
1	5199	731.611585007801	0.158217337049
1	5204	732.299838121047	0.158217337049
1	5209	733.03219162861	0.158217337049
1	5214	734.394470144148	0.158217337049
1	5219	734.991149917132	0.158217337049
1	5226	735.315659623983	0.158217337049
1	5229	735.473876961032	0.301836141932
1	5234	735.985766927306	0.158217337049
1	5241	737.371091041687	0.158217337049
1	5244	737.529308378736	0.304198286918
1	5249	739.517275866038	0.158217337049
1	5256	740.30839803593	0.158217337049
1	5259	740.466615372979	0.27585978109
1	5264	741.575104279604	0.158217337049
1	5269	742.54870671743	0.158217337049
1	5274	742.87821964087	0.158217337049
1	5279	743.594024219608	0.158217337049
1	5286	744.254104829259	0.158217337049
1	5292	744.640758619343	0.497187359872
1	5295	744.798975956392	0.315227564633
1	5300	745.843179797061	0.158217337049
1	5305	746.376068470686	0.158217337049
1	5312	749.846159459774	0.158217337049
1	5317	750.004376796823	0.309599231796
1	5322	750.162594133872	0.302898498538
1	5325	750.320811470921	0.231427220159
1	5330	751.188031605373	0.158217337049
1	5337	753.611221793314	0.158217337049
1	5340	753.769439130363	0.309251567819
1	5347	754.643486428209	0.158217337049
1	5352	754.801703765258	0.255673148222
1	5355	754.959921102307	0.252492071785
1	5360	755.992759821327	0.158217337049
1	5365	756.400780635275	0.158217337049
1	5370	756.790905395509	0.158217337049
1	5375	757.064214578152	0.158217337049
1	5380	757.531320473752	0.158217337049
1	5385	758.028875674522	0.158217337049
1	5392	758.903239100823	0.158217337049
1	5395	759.061456437872	0.213589362808
1	5400	759.274976169516	0.158217337049
1	5405	760.720906988611	0.158217337049
1	5410	761.650297323516	0.158217337049
1	5417	762.84286971482	0.158217337049
1	5422	763.001087051869	0.248278527723
1	5425	763.159304388918	0.233323736268
1	5430	764.110150684557	0.158217337049
1	5435	764.753981272762	0.158217337049
1	5441	765.140635062846	0.215681485555
1	5448	768.936131672622	0.158217337049
1	5451	769.094349009671	0.252116330382
1	5456	769.269570641131	0.158217337049
1	5461	770.140485388596	0.158217337049
1	5466	771.310850910068	0.158217337049
1	5471	771.497870141646	0.158217337049
1	5476	771.856284095457	0.158217337049
1	5481	772.042309335591	0.158217337049
1	5486	772.568805293795	0.158217337049
1	5491	772.775961748268	0.158217337049
1	5496	774.1524746652	0.158217337049
1	5501	774.341198674185	0.158217337049
1	5506	774.937576062908	0.158217337049
1	5511	776.015358036124	0.158217337049
1	5516	777.166274025088	0.158217337049
1	5521	777.899893333616	0.158217337049
1	5526	778.464214030077	0.158217337049
1	5531	779.096328138497	0.158217337049
1	5538	779.450411646523	0.158217337049
1	5541	779.608628983572	0.185856631609
1	5546	780.547124651347	0.158217337049
1	5553	780.863198517081	0.158217337049
1	5556	781.02141585413	0.176007922833
1	5561	783.320255877872	0.158217337049
1	5568	783.506539054041	0.158217337049
1	5573	783.66475639109	0.259422715041
1	5576	783.822973728139	0.313275107156
1	5581	784.567211328717	0.158217337049
1	5586	784.956294559121	0.158217337049
1	5592	785.459415270501	0.158217337049
1	5597	785.676943504719	0.158217337049
1	5602	786.208956693388	0.158217337049
1	5607	786.601412323982	0.158217337049
1	5614	787.089634245977	0.158217337049
1	5617	787.247851583026	0.275510742716
1	5622	787.820954263538	0.158217337049
1	5627	788.530581758111	0.158217337049
1	5632	789.703457710346	0.158217337049
1	5641	789.971577872404	0.158217337049
1	5644	790.129795209453	0.300633011017
1	5647	790.288012546502	0.352660645715
1	5652	790.951172416699	0.158217337049
1	5657	792.31645026627	0.158217337049
1	5662	792.989909211481	0.158217337049
1	5667	793.427608759082	0.158217337049
1	5672	793.865075150972	0.158217337049
1	5681	795.389011839937	0.158217337049
1	5686	795.547229176986	0.309438268332
1	5689	795.705446514035	0.363086462874
1	5692	795.863663851084	0.33730335625
1	5697	796.301323254067	0.158217337049
1	5702	798.593115966696	0.158217337049
1	5707	798.87182329355	0.158217337049
1	5712	800.480530981119	0.158217337049
1	5717	801.420653945616	0.158217337049
1	5724	802.470311274958	0.158217337049
1	5727	802.628528612007	0.175458507449
1	5732	802.833485488717	0.158217337049
1	5737	804.506947179029	0.158217337049
1	5743	804.989230245345	0.158217337049
1	5748	806.593126392859	0.158217337049
1	5753	806.943816375409	0.158217337049
1	5758	807.268719873759	0.158217337049
1	5763	808.290682976955	0.158217337049
1	5768	808.760856378219	0.158217337049
1	5773	809.767503949877	0.158217337049
1	5782	809.95286004959	0.158217337049
1	5785	810.111077386639	0.212555907176
1	5788	810.269294723688	0.337176909333
1	5793	810.795875970628	0.158217337049
1	5798	811.531417009215	0.158217337049
1	5803	812.316584943531	0.158217337049
1	5808	814.831391827794	0.158217337049
1	5813	815.011306135099	0.158217337049
1	5818	815.174958180492	0.158217337049
1	5823	816.38682736723	0.158217337049
1	5828	817.339059463298	0.158217337049
1	5835	818.289268138671	0.158217337049
1	5838	818.44748547572	0.195725777456
1	5843	819.363727810703	0.158217337049
1	5848	820.238255341862	0.158217337049
1	5853	821.427134961706	0.158217337049
1	5858	822.720931068356	0.158217337049
1	5867	823.264128521327	0.158217337049
1	5870	823.422345858376	0.202823191712
1	5875	823.580563195425	0.356749428253
1	5878	823.738780532474	0.267232767114
1	5885	824.112665060683	0.158217337049
1	5888	824.270882397732	0.219093344624
1	5894	824.657536187816	0.282090801768
1	5899	825.329758066448	0.158217337049
1	5904	826.579541068004	0.158217337049
1	5909	827.246216145066	0.158217337049
1	5914	828.76974267514	0.158217337049
1	5919	829.164830544765	0.158217337049
1	5928	830.292950437513	0.158217337049
1	5931	830.451167774562	0.299825839603
1	5934	830.609385111611	0.388264519735
1	5939	831.772142181713	0.158217337049
1	5944	833.153562265886	0.158217337049
1	5949	834.366144464849	0.158217337049
1	5954	835.922814494263	0.158217337049
1	5959	836.435297387503	0.158217337049
1	5964	838.876298211562	0.158217337049
1	5969	841.209256598128	0.158217337049
1	5974	841.517817696772	0.158217337049
1	5979	845.032915054792	0.158217337049
1	5984	845.367765293423	0.158217337049
1	5991	845.535999500892	0.158217337049
1	5994	845.694216837941	0.208310924751
1	5999	846.785054201307	0.158217337049
1	6004	848.19513449725	0.158217337049
1	6011	848.490677582457	0.158217337049
1	6014	848.648894919506	0.165018638945
1	6019	848.96639868877	0.158217337049
1	6024	849.218730584603	0.158217337049
1	6029	849.713582585707	0.158217337049
1	6034	849.954273282633	0.158217337049
1	6039	850.888400455213	0.158217337049
1	6045	851.283179641037	0.158217337049
1	6050	852.227008740044	0.158217337049
1	6057	852.529937370857	0.158217337049
1	6060	852.688154707906	0.235672833159
1	6065	853.229375275281	0.158217337049
1	6070	853.681319583222	0.158217337049
1	6075	854.406894324428	0.158217337049
1	6080	854.806286001826	0.158217337049
1	6085	856.172821096844	0.158217337049
1	6090	858.069736854046	0.158217337049
1	6095	859.622173497204	0.158217337049
1	6100	859.873988202643	0.158217337049
1	6107	861.213037853727	0.158217337049
1	6110	861.371255190776	0.163699861453
1	6115	861.736428104152	0.158217337049
1	6120	862.277530745405	0.158217337049
1	6125	863.982480965804	0.158217337049
1	6130	864.630954584113	0.158217337049
1	6135	865.986101565048	0.158217337049
1	6140	866.488851999453	0.158217337049
1	6145	867.242312299505	0.158217337049
1	6152	867.615246193846	0.158217337049
1	6155	867.773463530895	0.218431978115
1	6160	869.536167185528	0.158217337049
1	6165	870.047867474165	0.158217337049
1	6170	870.339362221698	0.158217337049
1	6175	870.555804678762	0.158217337049
1	6182	871.662102711155	0.158217337049
1	6185	871.820320048204	0.223656525465
1	6190	872.274102024166	0.158217337049
1	6204	872.66075581425	0.358871793682
1	6207	872.818973151299	0.504624150855
1	6212	872.977190488348	0.441010127951
1	6215	873.135407825397	0.566945142597
1	6218	873.293625162446	0.66520602019
1	6221	873.451842499495	0.506695899263
1	6226	874.828878723968	0.158217337049
1	6231	879.026232464558	0.158217337049
1	6236	879.921805613002	0.158217337049
1	6243	880.287462102701	0.158217337049
1	6246	880.44567943975	0.279392303497
1	6253	883.318060183739	0.158217337049
1	6256	883.476277520788	0.316389003073
1	6261	884.109724894521	0.158217337049
1	6266	884.890305443398	0.158217337049
1	6271	886.427817588292	0.158217337049
1	6276	887.560521266409	0.158217337049
1	6281	888.347132569634	0.158217337049
1	6288	888.681617444727	0.158217337049
1	6291	888.839834781776	0.216898310989
1	6296	890.998775144805	0.158217337049
1	6301	891.436288138244	0.158217337049
1	6306	891.784317511317	0.158217337049
1	6311	892.681578737552	0.158217337049
1	6316	897.438901375451	0.158217337049
1	6321	898.303066706974	0.158217337049
1	6326	898.480179855542	0.158217337049
1	6333	898.96132078054	0.158217337049
1	6336	899.119538117589	0.28890585167
1	6343	899.567264265889	0.158217337049
1	6349	899.953918055973	0.43175948206
1	6352	900.112135393022	0.345159329497
1	6357	900.671565750109	0.158217337049
1	6362	901.733643014692	0.158217337049
1	6367	902.61553244462	0.158217337049
1	6374	903.014566403531	0.158217337049
1	6377	903.17278374058	0.178564070883
1	6382	905.508918256066	0.158217337049
1	6387	906.284104969573	0.158217337049
1	6392	906.476761558431	0.158217337049
1	6399	907.086059990415	0.158217337049
1	6402	907.244277327464	0.269815500435
1	6407	907.855776223981	0.158217337049
1	6412	908.429755507608	0.158217337049
1	6417	909.338482736041	0.158217337049
1	6422	909.748011414544	0.158217337049
1	6427	910.719821476532	0.158217337049
1	6434	912.011172698824	0.158217337049
1	6437	912.169390035873	0.297262447092
1	6442	913.607547129313	0.158217337049
1	6447	915.689554418381	0.158217337049
1	6452	916.308968942669	0.158217337049
1	6457	918.118984227317	0.158217337049
1	6462	919.93769794526	0.158217337049
1	6467	920.768752917752	0.158217337049
1	6474	921.076278390123	0.158217337049
1	6477	921.234495727172	0.314445580005
1	6482	921.530979225487	0.158217337049
1	6487	922.754878717935	0.158217337049
1	6492	922.923173591723	0.158217337049
1	6498	923.309827381807	0.287784988334
1	6503	925.385353517388	0.158217337049
1	6508	927.769679241887	0.158217337049
1	6513	928.113029356478	0.158217337049
1	6520	928.455197096143	0.158217337049
1	6523	928.613414433192	0.296651197365
1	6528	929.241504671645	0.158217337049
1	6533	930.193908060708	0.158217337049
1	6540	930.836520875253	0.158217337049
1	6543	930.994738212302	0.168145612613
1	6548	931.534682560433	0.158217337049
1	6553	931.972147180999	0.158217337049
1	6558	932.221753423025	0.158217337049
1	6563	932.888259685946	0.158217337049
1	6568	933.355318982341	0.158217337049
1	6573	934.421763663763	0.158217337049
1	6578	935.305080979144	0.158217337049
1	6583	935.605381401814	0.158217337049
1	6588	935.776450201292	0.158217337049
1	6593	936.544600895317	0.158217337049
1	6598	936.969744730741	0.158217337049
1	6603	937.168102279897	0.158217337049
1	6608	938.391597703942	0.158217337049
1	6613	938.668918063393	0.158217337049
1	6618	941.047523855809	0.158217337049
1	6623	942.1538614871	0.158217337049
1	6628	942.313100065819	0.158217337049
1	6633	942.932334621859	0.158217337049
1	6638	943.937134824964	0.158217337049
1	6643	944.256572995785	0.158217337049
1	6649	944.772074530176	0.158217337049
1	6656	945.440039038231	0.158217337049
1	6661	945.59825637528	0.249594423993
1	6664	945.756473712329	0.190356408967
1	6673	946.256845971295	0.158217337049
1	6676	946.415063308344	0.295912642668
1	6679	946.573280645393	0.392061513642
1	6684	948.6732296544	0.158217337049
1	6691	950.644857347335	0.158217337049
1	6696	950.803074684384	0.313871074316
1	6699	950.961292021433	0.232206046319
1	6704	953.083969707568	0.158217337049
1	6709	953.436096816168	0.158217337049
1	6714	953.897054410603	0.158217337049
1	6719	955.063021255458	0.158217337049
1	6724	956.299309371201	0.158217337049
1	6731	957.356402440994	0.158217337049
1	6734	957.514619778043	0.293918776707
1	6739	960.451078407104	0.158217337049
1	6744	961.713103084109	0.158217337049
1	6749	962.720082656332	0.158217337049
1	6754	962.89295011195	0.158217337049
1	6759	964.221402474113	0.158217337049
1	6764	964.530513340212	0.158217337049
1	6769	964.840585915423	0.158217337049
1	6774	966.445662658587	0.158217337049
1	6779	967.325188330574	0.158217337049
1	6788	967.721333964031	0.158217337049
1	6793	967.87955130108	0.316113338781
1	6796	968.037768638129	0.361022047465
1	6802	968.424422428213	0.554789971272
1	6805	968.582639765262	0.337673751877
1	6810	968.824924973341	0.158217337049
1	6815	969.606793319804	0.158217337049
1	6820	969.876512589172	0.158217337049
1	6825	971.539512959181	0.158217337049
1	6832	972.146615573724	0.158217337049
1	6835	972.304832910773	0.27731498319
1	6840	973.766054560919	0.158217337049
1	6845	974.322693350902	0.158217337049
1	6850	975.102686325469	0.158217337049
1	6855	975.329246574872	0.158217337049
1	6860	976.417802946949	0.158217337049
1	6865	976.640180656591	0.158217337049
1	6870	976.924385301515	0.158217337049
1	6877	978.173691894663	0.158217337049
1	6880	978.331909231712	0.271002497458
1	6885	978.780679140676	0.158217337049
1	6890	979.013437178219	0.158217337049
1	6895	981.005393066825	0.158217337049
1	6900	982.03461717643	0.158217337049
1	6905	982.264600799842	0.158217337049
1	6910	983.088919991287	0.158217337049
1	6919	983.987789695096	0.158217337049
1	6922	984.146007032145	0.303032954327
1	6925	984.304224369194	0.326971929792
1	6932	985.859175988747	0.158217337049
1	6935	986.017393325796	0.204335504016
1	6940	987.110594675803	0.158217337049
1	6945	987.401682252942	0.158217337049
1	6953	987.837560996603	0.158217337049
1	6956	987.995778333652	0.30070677407
1	6967	988.158998783301	0.158217337049
1	6970	988.31721612035	0.245506474601
1	6973	988.475433457399	0.366741265757
1	6976	988.633650794448	0.486888548285
1	6981	991.351455908986	0.158217337049
1	6986	994.320301468065	0.158217337049
1	6991	995.22032612505	0.158217337049
1	6996	996.191835602396	0.158217337049
1	7003	996.375660299356	0.158217337049
1	7006	996.533877636405	0.230128826262
1	7011	997.598922866578	0.158217337049
1	7016	999.324772132871	0.158217337049
1	7021	999.692804435558	0.158217337049
2	5	0.550652497619	0
2	10	1.910870783915	0
2	15	3.836750170397	0
2	20	4.329623182405	0
2	25	5.840454672166	0
2	32	6.407048088319	0
2	35	6.565265425368	0.146081119235
2	42	7.277440189246	0
2	47	7.435657526295	0.147886580192
2	50	7.593874863344	0.142579199024
2	57	7.801753764666	0
2	60	7.959971101715	0.105965550542
2	65	8.513611159016	0
2	70	8.836604435201	0
2	75	9.703548560682	0
2	80	11.210804454275	0
2	85	11.460843239668	0
2	90	11.894479681942	0
2	95	12.90171410533	0
2	100	13.306076472033	0
2	107	14.671935997353	0
2	110	14.830153334402	0.021823331633
2	117	15.102204368229	0
2	120	15.260421705278	0.012213322485
2	125	15.795148824889	0
2	132	16.253876087031	0
2	135	16.41209342408	0.057120866108
2	140	17.572921522784	0
2	145	18.421707788646	0
2	150	18.729972944744	0
2	156	19.189373408665	0
2	161	20.65874792274	0
2	166	21.704480216382	0
2	171	22.447251108962	0
2	176	23.529795751704	0
2	181	24.901827708959	0
2	186	26.004573015014	0
2	191	26.776864352811	0
2	198	27.123885125414	0
2	203	27.282102462463	0.089679187454
2	206	27.440319799512	0.004479722797
2	211	28.007264306238	0
2	216	29.522993389332	0
2	221	29.790783109762	0
2	226	30.830192340965	0
2	233	31.43324858032	0
2	236	31.591465917369	0.038235062812
2	241	32.818289323143	0
2	248	33.499632824029	0
2	253	33.657850161078	0.131591133439
2	256	33.816067498127	0.066567175183
2	263	34.244807455405	0
2	266	34.403024792454	0.144593634616
2	271	34.999793578533	0
2	276	35.52081948533	0
2	281	36.675515358158	0
2	286	37.991796795133	0
2	291	39.78539685502	0
2	296	40.633405739579	0
2	301	41.059390680356	0
2	309	41.44604447044	0.177157097203
2	312	41.604261807489	0.019067555836
2	319	41.814530832027	0
2	322	41.972748169076	0.009489780207
2	329	44.116443375463	0
2	332	44.274660712512	0.036526228197
2	337	44.945796430168	0
2	344	45.255142175416	0
2	347	45.413359512465	0.008850643231
2	352	48.541537706909	0
2	357	49.549689008645	0
2	362	49.880725308284	0
2	367	50.142257322651	0
2	372	51.745634566478	0
2	377	53.007735431178	0
2	382	54.874057435653	0
2	391	57.148806856053	0
2	394	57.307024193102	0.113519916583
2	399	57.465241530151	0.243539119087
2	404	57.6234588672	0.101274829364
2	407	57.781676204249	0.064641316453
2	412	62.086407483532	0
2	417	62.573123194105	0
2	422	63.083044753975	0
2	427	63.354409291142	0
2	432	65.956502174467	0
2	439	67.655418652077	0
2	442	67.813635989126	0.00465852618
2	449	68.09591736587	0
2	454	68.254134702919	0.126762712836
2	458	68.640788493003	0.269357291708
2	463	71.99219465949	0
2	468	72.20076172503	0
2	473	72.889668167889	0
2	478	73.51274232668	0
2	483	73.713316662792	0
2	488	74.517969783304	0
2	495	74.938731260612	0
2	498	75.096948597661	0.014015469422
2	503	75.393727780021	0
2	508	75.844177275947	0
2	513	76.254176486329	0
2	518	76.6948592778	0
2	523	77.009381609564	0
2	528	78.326189109512	0
2	533	78.953910639622	0
2	538	79.296439378784	0
2	543	80.209751594428	0
2	548	81.008411082153	0
2	553	81.610522602159	0
2	558	83.284775192077	0
2	563	83.544354514049	0
2	568	84.757455495403	0
2	573	85.145709997844	0
2	578	85.504545902667	0
2	583	86.018122081583	0
2	588	86.228835118203	0
2	593	87.647771826358	0
2	600	88.099157643057	0
2	603	88.257374980106	0.10596887898
2	609	89.047933547757	0
2	614	89.40746636463	0
2	619	90.368588605536	0
2	624	90.609391826971	0
2	629	90.86332496467	0
2	636	91.677295399279	0
2	645	91.835512736328	0.129003360767
2	648	91.993730073377	0.106448546277
2	651	92.151947410426	0.242358416587
2	654	92.310164747475	0.336905594947
2	661	92.493575444274	0
2	668	92.651792781323	0.141505549508
2	671	92.810010118372	0.095887392367
2	676	92.968227455421	0.226277931312
2	679	93.12644479247	0.043679043831
2	684	94.103920644897	0
2	689	94.808273499569	0
2	694	95.418118068428	0
2	701	97.945349000169	0
2	704	98.103566337218	0.012824921257
2	709	98.518683131164	0
2	714	99.082150046545	0
2	719	99.955775108388	0
2	724	101.180059668518	0
2	729	101.473416466116	0
2	734	102.057408764013	0
2	739	102.511421607185	0
2	744	102.898419977149	0
2	749	103.158333173661	0
2	754	103.395322855855	0
2	760	103.798276075727	0
2	765	104.494599635957	0
2	770	104.940268201779	0
2	775	105.365281313563	0
2	780	105.822091573192	0
2	785	106.013253813975	0
2	790	106.637057984469	0
2	797	107.297429222277	0
2	800	107.455646559326	0.056375914572
2	805	108.775629134419	0
2	812	110.525833719672	0
2	815	110.684051056721	0.134524883876
2	820	111.316706989215	0
2	827	115.972332641431	0
2	832	116.13054997848	0.099558510307
2	837	116.288767315529	0.111017795742
2	840	116.446984652578	0.035961091696
2	845	117.020839153136	0
2	850	117.517948671967	0
2	855	117.808703668799	0
2	860	118.595391103633	0
2	865	119.100527996822	0
2	872	119.520744558586	0
2	875	119.678961895635	0.054317674674
2	880	120.791650163986	0
2	885	121.821911192632	0
2	892	122.038576774837	0
2	895	122.196794111886	0.023959885455
2	900	122.362911331407	0
2	907	123.259557349478	0
2	911	123.646211139562	0.269187746314
2	916	124.134095694397	0
2	923	124.3647208732	0
2	928	124.522938210249	0.063413450665
2	931	124.681155547298	0.110380627588
2	936	125.771074311822	0
2	943	126.709983838307	0
2	946	126.868201175356	0.080125617337
2	951	129.128159209794	0
2	956	130.309323328733	0
2	961	132.992664682525	0
2	968	133.946829008206	0
2	971	134.105046345255	0.035431041114
2	976	135.499620947301	0
2	981	138.251407319826	0
2	986	139.850150715397	0
2	991	140.554478655409	0
2	996	141.19057587958	0
2	1001	141.365962375658	0
2	1006	141.945853777845	0
2	1011	142.759622304947	0
2	1018	143.686803342158	0
2	1021	143.845020679207	0.091927661549
2	1026	144.038847396401	0
2	1031	144.653852228447	0
2	1036	144.841212348849	0
2	1041	145.74451862155	0
2	1046	146.098722868363	0
2	1051	146.441841736503	0
2	1056	146.646648668998	0
2	1062	147.033302459082	0.012383613533
2	1067	147.780607959302	0
2	1072	148.130546509424	0
2	1077	149.148249707258	0
2	1082	149.339677761939	0
2	1087	149.930143331762	0
2	1094	150.315699553871	0
2	1097	150.47391689092	0.063699016212
2	1102	151.822724990913	0
2	1107	152.233668456455	0
2	1112	154.250425915482	0
2	1117	154.666624485794	0
2	1124	155.213769931705	0
2	1127	155.371987268754	0.153382867982
2	1132	156.011173168028	0
2	1139	156.508501490733	0
2	1142	156.666718827782	0.022650786563
2	1147	157.622098420816	0
2	1152	158.539426746188	0
2	1159	158.950895578605	0
2	1162	159.109112915654	0.064353274146
2	1167	160.12602725036	0
2	1172	160.870018293224	0
2	1179	162.473592705847	0
2	1182	162.631810042896	0.041088162936
2	1189	162.823660201708	0
2	1194	162.981877538757	0.149242836486
2	1197	163.140094875806	0.134973210208
2	1204	164.27464867674	0
2	1207	164.432866013789	0.114667026985
2	1217	164.819519803873	0.035207644393
2	1222	164.977737140922	0.193127005172
2	1227	165.135954477971	0.315055049209
2	1230	165.29417181502	0.269919855452
2	1235	165.452389152069	0.161163637413
2	1238	165.610606489118	0.06350047443
2	1243	165.916607269279	0
2	1248	166.109450861472	0
2	1253	166.703029895431	0
2	1260	167.787423891001	0
2	1265	167.94564122805	0.055939068551
2	1270	168.103858565099	0.05485694601
[...]
7	5647	790.288012546502	0
7	5652	790.951172416699	0
7	5657	792.31645026627	0
7	5662	792.989909211481	0
7	5667	793.427608759082	0
7	5672	793.865075150972	0
7	5681	795.389011839937	0
7	5686	795.547229176986	0
7	5689	795.705446514035	0
7	5692	795.863663851084	0
7	5697	796.301323254067	0
7	5702	798.593115966696	0
7	5707	798.87182329355	0
7	5712	800.480530981119	0
7	5717	801.420653945616	0
7	5724	802.470311274958	0
7	5727	802.628528612007	0
7	5732	802.833485488717	0
7	5737	804.506947179029	0
7	5743	804.989230245345	0
7	5748	806.593126392859	0
7	5753	806.943816375409	0
7	5758	807.268719873759	0
7	5763	808.290682976955	0
7	5768	808.760856378219	0
7	5773	809.767503949877	0
7	5782	809.95286004959	0
7	5785	810.111077386639	0
7	5788	810.269294723688	0
7	5793	810.795875970628	0
7	5798	811.531417009215	0
7	5803	812.316584943531	0
7	5808	814.831391827794	0
7	5813	815.011306135099	0
7	5818	815.174958180492	0
7	5823	816.38682736723	0
7	5828	817.339059463298	0
7	5835	818.289268138671	0
7	5838	818.44748547572	0
7	5843	819.363727810703	0
7	5848	820.238255341862	0
7	5853	821.427134961706	0
7	5858	822.720931068356	0
7	5867	823.264128521327	0
7	5870	823.422345858376	0
7	5875	823.580563195425	0
7	5878	823.738780532474	0
7	5885	824.112665060683	0
7	5888	824.270882397732	0
7	5894	824.657536187816	0
7	5899	825.329758066448	0
7	5904	826.579541068004	0
7	5909	827.246216145066	0
7	5914	828.76974267514	0
7	5919	829.164830544765	0
7	5928	830.292950437513	0
7	5931	830.451167774562	0
7	5934	830.609385111611	0
7	5939	831.772142181713	0
7	5944	833.153562265886	0
7	5949	834.366144464849	0
7	5954	835.922814494263	0
7	5959	836.435297387503	0
7	5964	838.876298211562	0
7	5969	841.209256598128	0
7	5974	841.517817696772	0
7	5979	845.032915054792	0
7	5984	845.367765293423	0
7	5991	845.535999500892	0
7	5994	845.694216837941	0
7	5999	846.785054201307	0
7	6004	848.19513449725	0
7	6011	848.490677582457	0
7	6014	848.648894919506	0
7	6019	848.96639868877	0
7	6024	849.218730584603	0
7	6029	849.713582585707	0
7	6034	849.954273282633	0
7	6039	850.888400455213	0
7	6045	851.283179641037	0
7	6050	852.227008740044	0
7	6057	852.529937370857	0
7	6060	852.688154707906	0
7	6065	853.229375275281	0
7	6070	853.681319583222	0
7	6075	854.406894324428	0
7	6080	854.806286001826	0
7	6085	856.172821096844	0
7	6090	858.069736854046	0
7	6095	859.622173497204	0
7	6100	859.873988202643	0
7	6107	861.213037853727	0
7	6110	861.371255190776	0
7	6115	861.736428104152	0
7	6120	862.277530745405	0
7	6125	863.982480965804	0
7	6130	864.630954584113	0
7	6135	865.986101565048	0
7	6140	866.488851999453	0
7	6145	867.242312299505	0
7	6152	867.615246193846	0
7	6155	867.773463530895	0
7	6160	869.536167185528	0
7	6165	870.047867474165	0
7	6170	870.339362221698	0
7	6175	870.555804678762	0
7	6182	871.662102711155	0
7	6185	871.820320048204	0
7	6190	872.274102024166	0
7	6204	872.66075581425	0
7	6207	872.818973151299	0
7	6212	872.977190488348	0
7	6215	873.135407825397	0
7	6218	873.293625162446	0
7	6221	873.451842499495	0
7	6226	874.828878723968	0
7	6231	879.026232464558	0
7	6236	879.921805613002	0
7	6243	880.287462102701	0
7	6246	880.44567943975	0
7	6253	883.318060183739	0
7	6256	883.476277520788	0
7	6261	884.109724894521	0
7	6266	884.890305443398	0
7	6271	886.427817588292	0
7	6276	887.560521266409	0
7	6281	888.347132569634	0
7	6288	888.681617444727	0
7	6291	888.839834781776	0
7	6296	890.998775144805	0
7	6301	891.436288138244	0
7	6306	891.784317511317	0
7	6311	892.681578737552	0
7	6316	897.438901375451	0
7	6321	898.303066706974	0
7	6326	898.480179855542	0
7	6333	898.96132078054	0
7	6336	899.119538117589	0
7	6343	899.567264265889	0
7	6349	899.953918055973	0
7	6352	900.112135393022	0
7	6357	900.671565750109	0
7	6362	901.733643014692	0
7	6367	902.61553244462	0
7	6374	903.014566403531	0
7	6377	903.17278374058	0
7	6382	905.508918256066	0
7	6387	906.284104969573	0
7	6392	906.476761558431	0
7	6399	907.086059990415	0
7	6402	907.244277327464	0
7	6407	907.855776223981	0
7	6412	908.429755507608	0
7	6417	909.338482736041	0
7	6422	909.748011414544	0
7	6427	910.719821476532	0
7	6434	912.011172698824	0
7	6437	912.169390035873	0
7	6442	913.607547129313	0
7	6447	915.689554418381	0
7	6452	916.308968942669	0
7	6457	918.118984227317	0
7	6462	919.93769794526	0
7	6467	920.768752917752	0
7	6474	921.076278390123	0
7	6477	921.234495727172	0
7	6482	921.530979225487	0
7	6487	922.754878717935	0
7	6492	922.923173591723	0
7	6498	923.309827381807	0
7	6503	925.385353517388	0
7	6508	927.769679241887	0
7	6513	928.113029356478	0
7	6520	928.455197096143	0
7	6523	928.613414433192	0
7	6528	929.241504671645	0
7	6533	930.193908060708	0
7	6540	930.836520875253	0
7	6543	930.994738212302	0
7	6548	931.534682560433	0
7	6553	931.972147180999	0
7	6558	932.221753423025	0
7	6563	932.888259685946	0
7	6568	933.355318982341	0
7	6573	934.421763663763	0
7	6578	935.305080979144	0
7	6583	935.605381401814	0
7	6588	935.776450201292	0
7	6593	936.544600895317	0
7	6598	936.969744730741	0
7	6603	937.168102279897	0
7	6608	938.391597703942	0
7	6613	938.668918063393	0
7	6618	941.047523855809	0
7	6623	942.1538614871	0
7	6628	942.313100065819	0
7	6633	942.932334621859	0
7	6638	943.937134824964	0
7	6643	944.256572995785	0
7	6649	944.772074530176	0
7	6656	945.440039038231	0
7	6661	945.59825637528	0
7	6664	945.756473712329	0
7	6673	946.256845971295	0
7	6676	946.415063308344	0
7	6679	946.573280645393	0
7	6684	948.6732296544	0
7	6691	950.644857347335	0
7	6696	950.803074684384	0
7	6699	950.961292021433	0
7	6704	953.083969707568	0
7	6709	953.436096816168	0
7	6714	953.897054410603	0
7	6719	955.063021255458	0
7	6724	956.299309371201	0
7	6731	957.356402440994	0
7	6734	957.514619778043	0
7	6739	960.451078407104	0
7	6744	961.713103084109	0
7	6749	962.720082656332	0
7	6754	962.89295011195	0
7	6759	964.221402474113	0
7	6764	964.530513340212	0
7	6769	964.840585915423	0
7	6774	966.445662658587	0
7	6779	967.325188330574	0
7	6788	967.721333964031	0
7	6793	967.87955130108	0
7	6796	968.037768638129	0
7	6802	968.424422428213	0
7	6805	968.582639765262	0
7	6810	968.824924973341	0
7	6815	969.606793319804	0
7	6820	969.876512589172	0
7	6825	971.539512959181	0
7	6832	972.146615573724	0
7	6835	972.304832910773	0
7	6840	973.766054560919	0
7	6845	974.322693350902	0
7	6850	975.102686325469	0
7	6855	975.329246574872	0
7	6860	976.417802946949	0
7	6865	976.640180656591	0
7	6870	976.924385301515	0
7	6877	978.173691894663	0
7	6880	978.331909231712	0
7	6885	978.780679140676	0
7	6890	979.013437178219	0
7	6895	981.005393066825	0
7	6900	982.03461717643	0
7	6905	982.264600799842	0
7	6910	983.088919991287	0
7	6919	983.987789695096	0
7	6922	984.146007032145	0
7	6925	984.304224369194	0
7	6932	985.859175988747	0
7	6935	986.017393325796	0
7	6940	987.110594675803	0
7	6945	987.401682252942	0
7	6953	987.837560996603	0
7	6956	987.995778333652	0
7	6967	988.158998783301	0
7	6970	988.31721612035	0
7	6973	988.475433457399	0
7	6976	988.633650794448	0
7	6981	991.351455908986	0
7	6986	994.320301468065	0
7	6991	995.22032612505	0
7	6996	996.191835602396	0
7	7003	996.375660299356	0
7	7006	996.533877636405	0
7	7011	997.598922866578	0
7	7016	999.324772132871	0
7	7021	999.692804435558	0
8	31	6.407048088319	0.146081119235
8	41	7.277440189246	0.147886580192
8	46	7.435657526295	0.142579199024
8	56	7.801753764666	0.105965550542
8	106	14.671935997353	0.021823331633
8	116	15.102204368229	0.012213322485
8	131	16.253876087031	0.057120866108
8	197	27.123885125414	0.089679187454
8	202	27.282102462463	0.004479722797
8	232	31.43324858032	0.038235062812
8	247	33.499632824029	0.131591133439
8	252	33.657850161078	0.066567175183
8	262	34.244807455405	0.144593634616
8	304	41.287827133391	0.177157097203
8	308	41.44604447044	0.019067555836
8	318	41.814530832027	0.009489780207
8	328	44.116443375463	0.036526228197
8	343	45.255142175416	0.008850643231
8	390	57.148806856053	0.113519916583
8	393	57.307024193102	0.243539119087
8	398	57.465241530151	0.101274829364
8	403	57.6234588672	0.064641316453
8	438	67.655418652077	0.00465852618
8	448	68.09591736587	0.126762712836
8	455	68.482571155954	0.269357291708
8	494	74.938731260612	0.014015469422
8	599	88.099157643057	0.10596887898
8	635	91.677295399279	0.129003360767
8	644	91.835512736328	0.106448546277
8	647	91.993730073377	0.242358416587
8	650	92.151947410426	0.336905594947
8	660	92.493575444274	0.141505549508
8	667	92.651792781323	0.095887392367
8	670	92.810010118372	0.226277931312
8	675	92.968227455421	0.043679043831
8	700	97.945349000169	0.012824921257
8	796	107.297429222277	0.056375914572
8	811	110.525833719672	0.134524883876
8	826	115.972332641431	0.099558510307
8	831	116.13054997848	0.111017795742
8	836	116.288767315529	0.035961091696
8	871	119.520744558586	0.054317674674
8	891	122.038576774837	0.023959885455
8	908	123.487993802513	0.269187746314
8	922	124.3647208732	0.063413450665
8	927	124.522938210249	0.110380627588
8	942	126.709983838307	0.080125617337
8	967	133.946829008206	0.035431041114
8	1017	143.686803342158	0.091927661549
8	1059	146.875085122033	0.012383613533
8	1093	150.315699553871	0.063699016212
8	1123	155.213769931705	0.153382867982
8	1138	156.508501490733	0.022650786563
8	1158	158.950895578605	0.064353274146
8	1178	162.473592705847	0.041088162936
8	1188	162.823660201708	0.149242836486
8	1193	162.981877538757	0.134973210208
8	1203	164.27464867674	0.114667026985
8	1212	164.661302466824	0.035207644393
8	1216	164.819519803873	0.193127005172
8	1221	164.977737140922	0.315055049209
8	1226	165.135954477971	0.269919855452
8	1229	165.29417181502	0.161163637413
8	1234	165.452389152069	0.06350047443
8	1259	167.787423891001	0.055939068551
8	1264	167.94564122805	0.05485694601
8	1269	168.103858565099	0.053796243399
8	1284	169.552958378219	0.102428505157
8	1304	171.102801455545	0.147278715185
8	1361	179.914554864456	0.014002036432
8	1390	185.130836499654	0.109732534414
8	1405	186.207386227672	0.001670636419
8	1420	189.267190343324	0.103743473502
8	1425	189.425407680373	0.118559950377
8	1435	190.940425872333	0.053663639269
8	1495	197.613858363063	0.111769665087
8	1512	200.380290104386	0.045498988867
8	1561	205.172309894488	0.074249009905
8	1596	209.888388340325	0.116566325533
8	1646	214.557715607705	0.019402869976
8	1656	215.256213064941	0.121306178476
8	1687	218.910206107158	0.063570063242
8	1697	219.89924578315	0.131015236053
8	1707	221.541420946528	0.115098818999
8	1732	224.664718566477	0.035211644474
8	1757	228.272593603967	0.062900250207
8	1802	236.157241479131	0.121742169796
8	1814	237.57703854057	0.190525438015
8	1833	241.459315871508	0.078151248754
8	1858	244.158910351151	0.021873458525
8	1868	244.925207092717	0.04517624513
8	1883	246.303346957589	0.112714621453
8	1918	250.566810861514	0.001512706753
8	1953	254.330620093466	0.124460646578
8	1967	254.908310495019	0.282381737583
8	1969	255.066527832068	0.234979612211
8	1989	257.72561677706	0.073825555928
8	2009	259.386597543601	0.050848958997
8	2014	259.54481488065	0.127973040542
8	2024	260.856921054943	0.109706876406
8	2034	261.345021346021	0.021190235345
8	2074	266.354100968385	0.111426837662
8	2089	269.797580151613	0.155077271444
8	2094	269.955797488662	0.112430339673
8	2104	270.746022291464	0.086305595925
8	2116	272.292837331371	0.32789736164
8	2175	280.851255696041	0.033570520287
8	2185	281.208222009609	0.090967181601
8	2195	281.79264939259	0.107547858377
8	2225	287.563769993717	0.087178340549
8	2230	287.721987330766	0.117251132815
8	2235	287.880204667815	0.144714381513
8	2269	293.592481211746	0.302187735631
8	2273	293.750698548795	0.390047344834
8	2276	293.908915885844	0.250349934136
8	2301	297.304537813284	0.015109403456
8	2316	298.949379631671	0.118994213349
8	2341	303.786730458893	0.117424819146
8	2361	309.730880245446	0.099243508893
8	2385	312.607386120766	0.122049574954
8	2388	312.765603457815	0.201182664182
8	2391	312.923820794864	0.343673345847
8	2474	330.680068904736	0.123345464781
8	2477	330.838286241785	0.271583742187
8	2504	335.769864275176	0.098419200635
8	2509	335.928081612225	0.187054916924
8	2512	336.086298949274	0.213544853206
8	2569	346.036132953889	0.354025745487
8	2603	355.035120611275	0.062118977798
8	2648	364.531636845884	0.017733291545
8	2653	364.689854182933	0.057015843895
8	2672	366.922005324638	0.064836122625
8	2675	367.080222661687	0.218941727452
8	2678	367.238439998736	0.338135067576
8	2693	368.338021328305	0.103810474454
8	2708	369.64133318556	0.087101587539
8	2804	386.292334756343	0.129637757832
8	2814	387.278100462113	0.117860515618
8	2834	388.567684982834	0.052279835481
8	2885	396.548880934701	0.023771485197
8	2910	402.271704130224	0.121646194415
8	2975	414.320127476054	0.105250191788
8	3026	422.904752886462	0.042570194422
8	3031	423.062970223511	0.060412342692
8	3051	427.042283433744	0.155975846268
8	3056	427.200500770793	0.011638423759
8	3066	428.775923921049	0.142427637867
8	3071	428.934141258098	0.117165415747
8	3081	430.041637786066	0.112985096477
8	3116	435.488446890313	0.092768554796
8	3126	439.16900965145	0.063325432286
8	3151	444.1246241577	0.038555694526
8	3163	444.926013223259	0.092188284453
8	3170	445.084230560308	0.22768709027
8	3179	445.470884350392	0.434350229316
8	3181	445.629101687441	0.582765298085
8	3184	445.78731902449	0.560911658383
8	3187	445.945536361539	0.620095759029
8	3192	446.103753698588	0.102052643571
8	3202	450.915443004617	0.018365024029
8	3242	455.556322333227	0.10464195132
8	3259	456.769802379179	0.065870843657
8	3262	456.928019716228	0.206276380711
8	3302	459.82695227656	0.083166905835
8	3312	460.772777307778	0.017408759076
8	3324	461.407755716418	0.309055762276
8	3380	466.793225642237	0.119629219526
8	3385	466.951442979286	0.183340182827
8	3388	467.109660316335	0.195396056213
8	3440	473.789884127758	0.040544317916
8	3443	473.948101464807	0.159350930597
8	3448	474.106318801856	0.04787914457
8	3475	476.859518327987	0.04035950649
8	3479	477.017735665036	0.126883454065
8	3494	478.004004319526	0.038093893293
8	3499	478.162221656575	0.08073722054
8	3504	478.320438993624	0.106746509928
8	3534	482.69977222181	0.100601528078
8	3544	483.064999442004	0.143655789253
8	3569	486.622837784184	0.006475925136
8	3574	486.781055121233	0.038992146957
8	3584	488.535160117842	0.065943054419
8	3640	500.494060734789	0.093056071911
8	3665	502.448516854101	0.138594218483
8	3680	503.612118578231	0.064757859596
8	3732	514.680338706815	0.110030110508
8	3735	514.838556043864	0.167560303279
8	3740	514.996773380913	0.031258067546
8	3747	515.154990717962	0.051748897795
8	3750	515.313208055011	0.187652575118
8	3796	523.628333179342	0.079748680995
8	3811	525.414410664792	0.15599938547
8	3831	529.576268195613	0.107173865231
8	3851	535.927062935521	0.098086283677
8	3896	544.009271487405	0.131287257658
8	3937	549.602913675911	0.068533038966
8	3949	551.278265440929	0.148049267036
8	3952	551.436482777978	0.176165405409
8	3981	555.159759027295	0.120338362844
8	3986	555.317976364344	0.226994525871
8	3991	555.476193701393	0.319501882858
8	3994	555.634411038442	0.324356484735
8	3999	555.792628375491	0.452202000872
8	4002	555.95084571254	0.289480722207
8	4037	559.781368474415	0.013732549531
8	4052	561.209530415194	0.006735267246
8	4079	565.393191200289	0.164202235144
8	4103	569.12548284094	0.09010383092
8	4120	573.761184770294	0.050733282968
8	4123	573.919402107343	0.170507865418
8	4158	580.540174080102	0.134722534816
8	4168	581.574516953456	0.052767915289
8	4188	587.706168118909	0.045610281847
8	4254	598.122459212636	0.147055074893
8	4294	605.615191869247	0.060928238366
8	4309	606.201295010885	0.061054593982
8	4319	606.893551613485	0.136484389773
8	4344	608.831809536716	0.060717132437
8	4390	617.362001575633	0.105559894635
8	4425	622.53884151515	0.049250094707
8	4440	624.631522354249	0.047200888522
8	4460	626.823219129597	0.149558824762
8	4480	628.920697124916	0.032025999223
8	4487	629.078914461965	0.152601244441
8	4490	629.237131799014	0.218976354115
8	4505	630.530268503984	0.020650994471
8	4596	646.001140828899	0.008653357473
8	4606	646.464981157183	0.008874735909
8	4621	647.727140285266	0.005635013377
8	4626	647.885357622315	0.128309610967
8	4648	649.981963866139	0.049097653577
8	4651	650.140181203188	0.170950274082
8	4676	652.416048622378	0.005403790702
8	4772	668.600831895204	0.15006753173
8	4848	682.801561514875	0.057451083918
8	4908	695.175719049552	0.052964612286
8	4923	696.703068342254	0.151207459985
8	4978	707.352145914547	0.025659953151
8	4985	707.738799704631	0.120735182335
8	4994	709.014123369941	0.00233986761
8	5014	710.692774904403	0.067280000767
8	5039	714.652744516354	0.039341104833
8	5064	717.44463580733	0.138936868367
8	5106	722.736334542882	0.110387586704
8	5113	722.894551879931	0.202139000661
8	5116	723.05276921698	0.299997913792
8	5119	723.210986554029	0.366616666245
8	5129	723.529703015166	0.054251635016
8	5150	725.907985646568	0.023952066433
8	5180	729.142062600359	0.137038413641
8	5185	729.300279937408	0.103196719267
8	5225	735.315659623983	0.143618804883
8	5240	737.371091041687	0.145980949869
8	5255	740.30839803593	0.117642444041
8	5287	744.482541282294	0.338970022823
8	5291	744.640758619343	0.157010227584
8	5311	749.846159459774	0.151381894747
8	5316	750.004376796823	0.144681161489
8	5321	750.162594133872	0.07320988311
8	5336	753.611221793314	0.15103423077
8	5346	754.643486428209	0.097455811173
8	5351	754.801703765258	0.094274734736
8	5391	758.903239100823	0.055372025759
8	5416	762.84286971482	0.090061190674
8	5421	763.001087051869	0.075106399219
8	5438	764.982417725797	0.057464148506
8	5447	768.936131672622	0.093898993333
8	5537	779.450411646523	0.02763929456
8	5552	780.863198517081	0.017790585784
8	5567	783.506539054041	0.101205377992
8	5572	783.66475639109	0.155057770107
8	5613	787.089634245977	0.117293405667
8	5640	789.971577872404	0.142415673968
8	5643	790.129795209453	0.194443308666
8	5680	795.389011839937	0.151220931283
8	5685	795.547229176986	0.204869125825
8	5688	795.705446514035	0.179086019201
8	5723	802.470311274958	0.0172411704
8	5781	809.95286004959	0.054338570127
8	5784	810.111077386639	0.178959572284
8	5834	818.289268138671	0.037508440407
8	5866	823.264128521327	0.044605854663
8	5869	823.422345858376	0.198532091204
8	5874	823.580563195425	0.109015430065
8	5884	824.112665060683	0.060876007575
8	5891	824.499318850767	0.123873464719
8	5927	830.292950437513	0.141608502554
8	5930	830.451167774562	0.230047182686
8	5990	845.535999500892	0.050093587702
8	6010	848.490677582457	0.006801301896
8	6056	852.529937370857	0.07745549611
8	6106	861.213037853727	0.005482524404
8	6151	867.615246193846	0.060214641066
8	6181	871.662102711155	0.065439188416
8	6195	872.502538477201	0.200654456633
8	6203	872.66075581425	0.346406813806
8	6206	872.818973151299	0.282792790902
8	6211	872.977190488348	0.408727805548
8	6214	873.135407825397	0.506988683141
8	6217	873.293625162446	0.348478562214
8	6242	880.287462102701	0.121174966448
8	6252	883.318060183739	0.158171666024
8	6287	888.681617444727	0.05868097394
8	6332	898.96132078054	0.130688514621
8	6346	899.795700718924	0.273542145011
8	6348	899.953918055973	0.186941992448
8	6373	903.014566403531	0.020346733834
8	6398	907.086059990415	0.111598163386
8	6433	912.011172698824	0.139045110043
8	6473	921.076278390123	0.156228242956
8	6495	923.151610044758	0.129567651285
8	6519	928.455197096143	0.138433860316
8	6539	930.836520875253	0.009928275564
8	6655	945.440039038231	0.091377086944
8	6660	945.59825637528	0.032139071918
8	6672	946.256845971295	0.137695305619
8	6675	946.415063308344	0.233844176593
8	6690	950.644857347335	0.155653737267
8	6695	950.803074684384	0.07398870927
8	6730	957.356402440994	0.135701439658
8	6787	967.721333964031	0.157896001732
8	6792	967.87955130108	0.202804710416
8	6799	968.266205091164	0.396572634223
8	6801	968.424422428213	0.179456414828
8	6831	972.146615573724	0.119097646141
8	6876	978.173691894663	0.112785160409
8	6918	983.987789695096	0.144815617278
8	6921	984.146007032145	0.168754592743
8	6931	985.859175988747	0.046118166967
8	6952	987.837560996603	0.142489437021
8	6966	988.158998783301	0.087289137552
8	6969	988.31721612035	0.208523928708
8	6972	988.475433457399	0.328671211236
8	7002	996.375660299356	0.071911489213

