version 2
run General-333-20240201-11:04:27-40057
attr configname General
attr datetime 20240201-11:04:27
attr experiment General
attr inifile main.ini
attr iterationvars "$0=1.2, $1=3.5, $2=50"
attr iterationvarsf 1.2,3.5,50-
attr measurement "$0=1.2, $1=3.5, $2=50"
attr network Rete
attr processid 40057
attr repetition 13
attr replication #13
attr resultdir results
attr runnumber 333
attr seedset 333
param Rete.lambda 1.2
param Rete.a 0.3s
param Rete.b 3.5s
param Rete.c 0.1s
param Rete.d 0.3s
param Rete.mu 3.0
param Rete.source2.interArrivalTime exponential(1s/lambda)
param Rete.source2.jobServiceTime exponential(1s/mu)
param Rete.source2.deadline uniform(a,b)
param Rete.server2.j 50
param Rete.server2.V uniform(c,d)

vector 0 Rete.passiveQueue queueLength:vector ETV
attr interpolationmode sample-hold
attr title "queue length, vector"
vector 1 Rete.passiveQueue queueingTime:vector ETV
attr interpolationmode none
attr title "queueing time at dequeue, vector"
attr unit s
vector 2 Rete.sink lifeTime:vector ETV
attr interpolationmode none
attr title "lifetime of arrived jobs, vector"
attr unit s
vector 3 Rete.sink totalQueueingTime:vector ETV
attr interpolationmode none
attr title "the total time spent in queues by arrived jobs, vector"
attr unit s
vector 4 Rete.sink queuesVisited:vector ETV
attr interpolationmode none
attr title "the total number of queues visited by arrived jobs, vector"
vector 5 Rete.sink totalServiceTime:vector ETV
attr interpolationmode none
attr title "the total time spent  by arrived jobs, vector"
attr unit s
vector 6 Rete.sink totalDelayTime:vector ETV
attr interpolationmode none
attr title "the total time spent in delay nodes by arrived jobs, vector"
attr unit s
vector 7 Rete.sink delaysVisited:vector ETV
attr interpolationmode none
attr title "the total number of delays visited by arrived jobs, vector"
vector 8 Rete.sink generation:vector ETV
attr interpolationmode none
attr title "the generation of the arrived jobs, vector"
0	0	0	0
0	5	0.667278839429	1
0	7	1.00451878594	2
0	8	1.088242421406	1
0	12	1.338671595514	2
0	13	1.52339397326	1
0	16	1.958545525114	0
0	20	2.096695508921	1
0	21	2.393697076968	0
0	25	2.480036066244	1
0	26	2.828848628822	0
0	30	3.243655911934	1
0	31	3.264000180676	0
0	35	3.284913642497	1
0	37	3.548278326237	2
0	39	3.640283969546	3
0	40	3.69915173253	2
0	44	4.017311735142	3
0	46	4.102742863544	4
0	47	4.134303284384	3
0	50	4.569454836238	2
0	53	5.004606388092	1
0	55	5.004606388092	0
0	63	7.205555550918	1
0	64	7.406063880349	0
0	68	7.524101071039	1
0	69	7.841215432203	0
0	83	10.029349901913	1
0	84	10.420342127053	0
0	93	12.888707140258	1
0	94	13.27186902701	0
0	98	13.415438957622	1
0	100	13.642756020439	2
0	101	13.707020578864	1
0	104	14.142172130718	0
0	108	14.47141384029	1
0	109	14.577323682572	0
0	113	14.661229064347	1
0	115	14.689757140949	2
0	117	14.849596096047	3
0	119	14.877007784635	4
0	120	15.012475234426	3
0	124	15.3242928457	4
0	125	15.44762678628	3
0	129	15.64577329814	4
0	130	15.882778338134	3
0	132	15.882778338134	2
0	133	15.882778338134	1
0	135	16.317929889988	0
0	154	19.445962990844	1
0	155	19.71715989151	0
0	174	30.236347251	1
0	175	30.549215244556	0
0	184	31.443923748849	1
0	185	31.7513199332	0
0	189	31.995666900665	1
0	190	32.186471485054	0
0	199	32.737056218889	1
0	200	33.059157311158	0
0	209	33.913678253699	1
0	210	34.256009896518	0
0	219	35.043292184625	1
0	220	35.442456109344	0
0	224	35.768896908178	1
0	225	35.877607661198	0
0	229	36.00213623467	1
0	230	36.312759213052	0
0	239	39.688238093509	1
0	240	40.061553591317	0
0	259	47.205861545029	1
0	262	47.658187764386	0
0	275	51.020064040878	1
0	276	51.037676671972	0
0	280	51.254512352314	1
0	281	51.472828223826	0
0	290	52.865255093112	1
0	292	53.047965122966	2
0	293	53.198191480449	1
0	296	53.633343032303	0
0	300	53.795451146609	1
0	302	54.013018315472	2
0	303	54.068494584157	1
0	306	54.503646136011	0
0	315	55.233954686919	1
0	317	55.350283593285	2
0	318	55.474752303565	1
0	321	55.909903855419	0
0	330	58.211591514147	1
0	331	58.541627799514	0
0	340	59.063553930011	1
0	341	59.495599273531	0
0	345	59.737550779126	1
0	346	59.930750825385	0
0	355	60.591300117604	1
0	356	60.874896592878	0
0	360	61.139193289868	1
0	361	61.310048144732	0
0	370	62.769614841799	1
0	371	62.857034209164	0
0	380	63.937499212671	1
0	381	64.116399974095	0
0	390	65.074734877809	1
0	391	65.153821416916	0
0	415	73.080685473986	1
0	416	73.36175982774	0
0	425	76.485921172144	1
0	427	76.522334518488	2
0	428	76.64098495907	1
0	431	77.076136510924	0
0	445	80.416718301203	1
0	446	80.541845898791	0
0	475	85.518598837036	1
0	476	85.647145512671	0
0	480	85.694763509242	1
0	481	86.082297064525	0
0	485	86.205558453099	1
0	486	86.517448616379	0
0	495	87.134157003086	1
0	496	87.500527938342	0
0	500	87.79346821784	1
0	501	87.935679490196	0
0	505	88.17609235643	1
0	506	88.37083104205	0
0	512	88.859455345882	1
0	513	89.010492777676	0
0	516	89.109373364123	1
0	518	89.288342553422	2
0	519	89.44564432953	1
0	522	89.880795881384	0
0	526	89.923367718427	1
0	528	90.250236251219	2
0	529	90.315947433238	1
0	533	90.518784591066	2
0	535	90.68609883912	3
0	537	90.721851799144	4
0	538	90.751098985092	3
0	541	91.186250536946	2
0	545	91.522474113574	3
0	546	91.6214020888	2
0	550	91.682886711623	3
0	552	91.965878302243	4
0	553	92.056553640654	3
0	555	92.056553640654	2
0	557	92.491705192508	1
0	560	92.926856744362	0
0	569	97.575309169609	1
0	570	97.890219562026	0
0	574	97.930935836163	1
0	576	98.260660474535	2
0	577	98.32537111388	1
0	580	98.760522665734	0
0	589	99.472889430578	1
0	590	99.744167685523	0
0	609	102.456159288321	1
0	610	102.497573016413	0
0	624	104.387900357701	1
0	625	104.620917208732	0
0	629	104.621945745686	1
0	630	105.056068760586	0
0	644	107.941402508369	1
0	646	108.047774917	2
0	647	108.195311616227	1
0	650	108.630463168081	0
0	659	111.004972527979	1
0	660	111.120028368125	0
0	664	111.407095410034	1
0	665	111.555179919979	0
0	679	113.926699489578	1
0	680	114.306381599731	0
0	699	121.025375218994	1
0	700	121.378796116004	0
0	719	126.322818686322	1
0	720	126.61789917222	0
0	724	126.779338151291	1
0	725	127.053050724074	0
0	729	127.458717730004	1
0	730	127.488202275928	0
0	744	129.85173794749	1
0	745	130.150549113163	0
0	749	130.532663199508	1
0	750	130.585700665017	0
0	766	133.110416453224	1
0	767	133.28907187693	0
0	775	134.2153105197	1
0	777	134.274039471039	2
0	779	134.377419536624	3
0	780	134.544517199905	2
0	783	134.979668751759	1
0	787	135.124305758598	2
0	788	135.414820303613	1
0	790	135.414820303613	0
0	828	141.133209024275	1
0	829	141.396646281742	0
0	838	142.888408774976	1
0	840	142.959102909157	2
0	841	143.245139784934	1
0	845	143.383139566848	2
0	846	143.680291336788	1
0	849	144.115442888642	0
0	858	145.280929719041	1
0	859	145.494881971075	0
0	863	145.540912931076	1
0	864	145.930033522929	0
0	883	148.377148254546	1
0	884	148.78743315241	0
0	913	154.430882671782	1
0	914	154.794622233337	0
0	918	154.946042268731	1
0	919	155.229773785191	0
0	938	157.629089962248	1
0	939	157.938123151838	0
0	943	158.011798651124	1
0	944	158.373274703692	0
0	963	162.322131689882	1
0	964	162.577939737898	0
0	983	166.916305696525	1
0	985	167.097366663718	2
0	986	167.250278087584	1
0	989	167.685429639438	0
0	1008	172.177782015706	1
0	1009	172.245936342984	0
0	1018	173.262394826947	1
0	1021	173.824948716171	0
0	1039	177.937996370017	1
0	1040	178.288314157873	0
0	1049	179.16562683778	1
0	1050	179.560769465418	0
0	1074	183.767178173354	1
0	1076	184.09101676813	2
0	1077	184.157740621213	1
0	1080	184.592892173067	0
0	1084	184.750584509494	1
0	1085	185.028043724921	0
0	1094	188.373530466394	1
0	1095	188.672073126933	0
0	1114	193.420984072801	1
0	1116	193.44211013743	2
0	1117	193.701131806599	1
0	1121	193.915577850946	2
0	1123	194.075630642814	3
0	1124	194.136283358453	2
0	1127	194.571434910307	1
0	1131	194.941026196134	2
0	1132	195.006586462161	1
0	1135	195.441738014015	0
0	1149	196.94993615389	1
0	1151	197.08002301335	2
0	1152	197.279340147204	1
0	1155	197.714491699058	0
0	1194	206.41017932344	1
0	1195	206.586158723676	0
0	1199	206.707066295887	1
0	1200	207.02131027553	0
0	1209	208.341708581727	1
0	1211	208.34364960946	2
0	1212	208.499508881212	1
0	1216	208.646044613303	2
0	1217	208.934660433066	1
0	1221	209.019182559771	2
0	1222	209.36981198492	1
0	1225	209.804963536774	0
0	1229	210.043052673488	1
0	1230	210.240115088628	0
0	1259	218.062864779348	1
0	1260	218.375964764636	0
0	1264	218.553061660114	1
0	1265	218.81111631649	0
0	1300	227.349741365449	1
0	1301	227.746872987462	0
0	1305	228.083682924201	1
0	1306	228.182024539316	0
0	1325	231.807194861152	1
0	1326	232.17316858074	0
0	1330	232.386695921152	1
0	1331	232.608320132594	0
0	1340	234.728016008344	1
0	1341	235.091369942229	0
0	1355	238.838288522783	1
0	1356	239.153572868915	0
0	1370	242.876175308859	1
0	1371	243.231419822193	0
0	1390	246.096609421541	1
0	1391	246.162773797842	0
0	1410	252.602216578994	1
0	1411	252.843823525677	0
0	1415	253.137059157446	1
0	1417	253.274810655532	2
0	1418	253.278975077531	1
0	1422	253.31451051731	2
0	1423	253.714126629385	1
0	1426	254.149278181239	0
0	1430	254.263229265817	1
0	1431	254.584429733093	0
0	1455	257.850453013303	1
0	1456	258.150870726367	0
0	1480	262.736732783162	1
0	1481	262.88791179074	0
0	1500	267.011861322511	1
0	1502	267.018395223435	2
0	1503	267.192790937024	1
0	1506	267.627942488878	0
0	1520	270.061625808256	1
0	1523	270.348489414394	0
0	1526	270.367344842818	1
0	1528	270.634863861358	2
0	1529	270.783640966248	1
0	1532	271.218792518102	0
0	1541	272.101031672928	1
0	1542	272.478006934644	0
0	1561	276.329754509723	1
0	1563	276.604962626397	2
0	1565	276.681509218605	3
0	1566	276.698386862381	2
0	1570	276.724286355829	3
0	1571	277.133538414235	2
0	1574	277.568689966089	1
0	1578	277.879033940555	2
0	1579	278.003841517943	1
0	1581	278.003841517943	0
0	1599	282.145678294286	1
0	1601	282.21223599982	2
0	1602	282.402857633233	1
0	1605	282.838009185087	0
0	1614	283.397160084238	1
0	1616	283.445430099799	2
0	1617	283.743095332492	1
0	1621	284.073197603958	2
0	1622	284.178246884346	1
0	1626	284.586965915773	2
0	1627	284.6133984362	1
0	1630	285.048549988054	0
0	1634	285.368380721349	1
0	1636	285.384187344269	2
0	1637	285.483701539908	1
0	1641	285.612627631419	2
0	1643	285.639713837355	3
0	1645	285.856744307027	4
0	1646	285.918853091762	3
0	1649	286.354004643616	2
0	1652	286.78915619547	1
0	1654	286.78915619547	0
0	1657	286.918164897628	1
0	1658	287.224307747324	0
0	1662	287.464477543904	1
0	1664	287.515856519985	2
0	1665	287.659459299178	1
0	1668	288.094610851032	0
0	1692	291.436801503815	1
0	1694	291.505265529209	2
0	1696	291.546161864549	3
0	1697	291.827855559659	2
0	1700	292.263007111513	1
0	1703	292.698158663367	0
0	1720	294.429101719205	1
0	1721	294.662523550665	0
0	1725	294.975790476742	1
0	1726	295.097675102519	0
0	1730	295.158953308254	1
0	1731	295.532826654373	0
0	1760	299.006897864013	1
0	1762	299.056386871962	2
0	1764	299.268159612851	3
0	1765	299.391316789433	2
0	1769	299.772940630509	3
0	1770	299.826468341287	2
0	1773	300.261619893141	1
0	1775	300.261619893141	0
0	1783	301.541859220871	1
0	1786	301.879251035691	0
0	1799	304.823651008467	1
0	1800	305.120008190279	0
0	1814	306.528251290084	1
0	1815	306.687062915489	0
0	1824	311.226687922904	1
0	1825	311.526459122808	0
0	1829	311.590925028452	1
0	1830	311.961610674662	0
0	1849	315.772908313121	1
0	1850	315.886661401632	0
0	1854	316.010423670255	1
0	1856	316.206685162126	2
0	1857	316.321812953486	1
0	1861	316.718485986876	2
0	1862	316.75696450534	1
0	1866	316.806281325031	2
0	1868	316.959274961236	3
0	1869	317.192116057194	2
0	1873	317.488754353334	3
0	1874	317.627267609048	2
0	1877	318.062419160902	1
0	1879	318.062419160902	0
0	1902	323.366798804317	1
0	1903	323.605192087447	0
0	1922	327.528734474321	1
0	1923	327.633370623433	0
0	1932	329.511953502383	1
0	1933	329.925227522848	0
0	1942	331.097364896484	1
0	1943	331.163152745058	0
0	1952	333.206968566976	1
0	1954	333.418550443265	2
0	1956	333.457944607189	3
0	1958	333.522622791869	4
0	1959	333.583722608407	3
0	1962	334.018874160261	2
0	1965	334.454025712115	1
0	1967	334.454025712115	0
0	1970	334.663432161506	1
0	1971	334.889177263969	0
0	1975	334.891866692744	1
0	1976	335.324328815823	0
0	1980	335.540900275103	1
0	1981	335.759480367677	0
0	2000	341.891453230272	1
0	2001	341.979037632659	0
0	2005	342.336192603005	1
0	2006	342.414189184513	0
0	2025	347.654806981262	1
0	2026	347.833762242476	0
0	2030	348.082502555311	1
0	2031	348.26891379433	0
0	2046	351.038951401997	1
0	2047	351.375916055758	0
0	2061	353.414486145899	1
0	2062	353.841169782184	0
0	2066	354.110316182231	1
0	2067	354.276321334038	0
0	2071	354.634144669221	1
0	2072	354.711472885892	0
0	2096	361.080052214759	1
0	2097	361.480695189578	0
0	2116	365.2927635029	1
0	2118	365.369601361082	2
0	2119	365.687211418008	1
0	2122	366.122362969862	0
0	2141	371.219791364007	1
0	2142	371.481009792823	0
0	2146	371.715293367939	1
0	2147	371.916161344677	0
0	2151	372.297740096325	1
0	2152	372.351312896531	0
0	2166	376.095011996866	1
0	2167	376.436352283065	0
0	2191	380.190767345195	1
0	2192	380.625312845568	0
0	2196	380.705697252292	1
0	2197	381.060464397422	0
0	2216	384.70374509136	1
0	2217	384.929240430308	0
0	2221	385.202510586714	1
0	2222	385.364391982162	0
0	2226	385.592901001463	1
0	2227	385.799543534016	0
0	2241	387.423789332893	1
0	2242	387.788431768905	0
0	2246	387.920194283385	1
0	2248	388.131563491987	2
0	2250	388.178208376598	3
0	2251	388.223583320759	2
0	2254	388.658734872613	1
0	2258	388.91160380326	2
0	2259	389.093886424467	1
0	2263	389.258633915	2
0	2265	389.402879892962	3
0	2266	389.529037976321	2
0	2269	389.964189528175	1
0	2272	390.399341080029	0
0	2284	396.162937372628	1
0	2285	396.428553784865	0
0	2305	399.381660550238	1
0	2307	399.479587713097	2
0	2309	399.555263495453	3
0	2310	399.619886306843	2
0	2314	399.664893136293	3
0	2315	400.055037858697	2
0	2318	400.490189410551	1
0	2321	400.925340962405	0
0	2358	409.826643768987	1
0	2359	409.83370561816	0
0	2363	410.058920415223	1
0	2365	410.094229672463	2
0	2366	410.268857170014	1
0	2370	410.513453411065	2
0	2371	410.704008721868	1
0	2374	411.139160273722	0
0	2378	411.217598237712	1
0	2380	411.479592112122	2
0	2381	411.574311825576	1
0	2385	411.626349612227	2
0	2386	412.00946337743	1
0	2390	412.432163855566	2
0	2391	412.444614929284	1
0	2395	412.733427564303	2
0	2396	412.879766481138	1
0	2399	413.314918032992	0
0	2403	413.442939423797	1
0	2404	413.750069584846	0
0	2413	415.778305502204	1
0	2415	415.833293068555	2
0	2416	416.055292388591	1
0	2419	416.490443940445	0
0	2428	417.247035642309	1
0	2430	417.430538603922	2
0	2431	417.514560724844	1
0	2434	417.949712276698	0
0	2448	421.043363274443	1
0	2449	421.069585438182	0
0	2458	422.628902899476	1
0	2459	422.812951595645	0
0	2483	431.497214292952	1
0	2484	431.722778008169	0
0	2488	431.764213768013	1
0	2490	431.883848097194	2
0	2491	432.157929560023	1
0	2494	432.593081111877	0
0	2513	435.69477636135	1
0	2515	435.892812500166	2
0	2516	435.962653013165	1
0	2519	436.397804565019	0
0	2538	439.933057468581	1
0	2539	440.322793972381	0
0	2548	441.60312701254	1
0	2551	441.823383557541	0
0	2554	442.257764895178	1
0	2555	442.258535109395	0
0	2569	443.798614345742	1
0	2570	444.024208398461	0
0	2594	449.396158215497	1
0	2595	449.489349993856	0
0	2614	452.287821630165	1
0	2615	452.584100786739	0
0	2619	452.885787850428	1
0	2620	453.019252338593	0
0	2624	453.060130417998	1
0	2626	453.44617858851	2
0	2627	453.454403890447	1
0	2630	453.889555442301	0
0	2634	453.932610686961	1
0	2635	454.324706994155	0
0	2664	459.482383333185	1
0	2665	459.856366850798	0
0	2719	472.352405309842	1
0	2721	472.572965731928	2
0	2723	472.605624650334	3
0	2724	472.610939421449	2
0	2728	472.746394270632	3
0	2729	473.046090973303	2
0	2732	473.481242525157	1
0	2735	473.916394077011	0
0	2752	475.649489094085	1
0	2753	475.99132330246	0
0	2757	476.091391556229	1
0	2759	476.332496705227	2
0	2760	476.426474854314	1
0	2763	476.861626406168	0
0	2767	476.931759110157	1
0	2768	477.296777958022	0
0	2772	477.525536908755	1
0	2773	477.731929509876	0
0	2782	479.085809389908	1
0	2783	479.34069166205	0
0	2792	480.152063815817	1
0	2793	480.420032051673	0
0	2797	480.783128852756	1
0	2798	480.855183603527	0
0	2802	481.104381807655	1
0	2806	481.342640481254	2
0	2807	481.494845339153	1
0	2809	481.929996891007	0
0	2818	483.175839093634	1
0	2820	483.193854489475	2
0	2821	483.491647097212	1
0	2825	483.763434497144	2
0	2826	483.926798649066	1
0	2829	484.36195020092	0
0	2848	488.410996234766	1
0	2849	488.663801059993	0
0	2853	488.734680205223	1
0	2855	488.948877649095	2
0	2857	488.990581426337	3
0	2858	489.098952611847	2
0	2862	489.530384750605	3
0	2863	489.534104163701	2
0	2866	489.969255715555	1
0	2868	489.969255715555	0
0	2876	492.299096113045	1
0	2877	492.681263323147	0
0	2921	503.337747811849	1
0	2922	503.735395010784	0
0	2926	504.0051582676	1
0	2927	504.170546562638	0
0	2931	504.51927322742	1
0	2932	504.605698114492	0
0	2961	514.40231095305	1
0	2962	514.687325512878	0
0	2971	516.941149989656	1
0	2972	517.096872195373	0
0	2986	518.695567378548	1
0	2987	519.048242328456	0
0	3006	522.217812799224	1
0	3008	522.572895516533	2
0	3009	522.601547389629	1
0	3012	523.036698941483	0
0	3026	525.19294520583	1
0	3027	525.239925895209	0
0	3046	529.350849269512	1
0	3047	529.662964801528	0
0	3072	535.638446071124	1
0	3073	535.64862386406	0
0	3077	535.655865774199	1
0	3078	536.083775415914	0
0	3082	536.219259959619	1
0	3084	536.482761726722	2
0	3085	536.518926967768	1
0	3088	536.954078519622	0
0	3092	537.152411920734	1
0	3093	537.389230071476	0
0	3097	537.80293990535	1
0	3098	537.82438162333	0
0	3122	541.414408427615	1
0	3123	541.649312268087	0
0	3127	541.980402393218	1
0	3128	542.084463819941	0
0	3157	549.600838170723	1
0	3158	549.896028961176	0
0	3162	550.144616026068	1
0	3163	550.33118051303	0
0	3172	551.545997883218	1
0	3173	551.761997330628	0
0	3177	551.802750682342	1
0	3178	552.197148882482	0
0	3192	554.379316801936	1
0	3194	554.412777446269	2
0	3195	554.496344646895	1
0	3199	554.707155865262	2
0	3201	554.758699085786	3
0	3202	554.931496198749	2
0	3206	555.198232357986	3
0	3207	555.366647750603	2
0	3210	555.801799302457	1
0	3212	555.801799302457	0
0	3220	556.753310787873	1
0	3221	556.933585847363	0
0	3235	560.109717498859	1
0	3236	560.213840396279	0
0	3245	561.693138434392	1
0	3246	562.02969652698	0
0	3260	564.05527585838	1
0	3261	564.228587032099	0
0	3265	564.300932183081	1
0	3266	564.663738583953	0
0	3290	569.582030070062	1
0	3292	569.730832683396	2
0	3294	569.819696271264	3
0	3295	569.840748938758	2
0	3298	570.275900490612	1
0	3302	570.319293089449	2
0	3303	570.711052042466	1
0	3306	571.14620359432	0
0	3321	575.274001704536	1
0	3323	575.275403138194	2
0	3324	575.690888492574	1
0	3327	576.126040044428	0
0	3361	585.9358817348	1
0	3363	586.082475892376	2
0	3364	586.317483910586	1
0	3367	586.75263546244	0
0	3371	587.076210067219	1
0	3372	587.187787014294	0
0	3391	590.27282315676	1
0	3393	590.419630368266	2
0	3394	590.669760129016	1
0	3397	591.10491168087	0
0	3401	591.349681095733	1
0	3402	591.540063232724	0
0	3421	595.354838613848	1
0	3422	595.61768991338	0
0	3436	597.975881588483	1
0	3437	598.279169886386	0
0	3476	606.942172427385	1
0	3477	607.074300651143	0
0	3481	607.441310757742	1
0	3482	607.509452202997	0
0	3486	607.753117411311	1
0	3487	607.944603754851	0
0	3506	612.257109929077	1
0	3507	612.362051032432	0
0	3516	613.3942353818	1
0	3517	613.520922053705	0
0	3526	614.855264864956	1
0	3527	615.203890381797	0
0	3531	615.213322254519	1
0	3533	615.541216312176	2
0	3534	615.639041933651	1
0	3537	616.074193485505	0
0	3551	617.757529177048	1
0	3552	617.781478111582	0
0	3567	619.414009731925	1
0	3568	619.62516939331	0
0	3572	619.760952311871	1
0	3573	620.060320945164	0
0	3627	630.150053958299	1
0	3629	630.218749987646	2
0	3630	630.435293538506	1
0	3634	630.446404254857	2
0	3636	630.673069566066	3
0	3637	630.87044509036	2
0	3641	630.871033637539	3
0	3642	631.305596642214	2
0	3645	631.740748194068	1
0	3647	631.740748194068	0
0	3650	632.028885235377	1
0	3651	632.175899745922	0
0	3655	632.385649615011	1
0	3657	632.441226811718	2
0	3658	632.611051297776	1
0	3662	633.029896051137	2
0	3663	633.04620284963	1
0	3666	633.481354401484	0
0	3675	634.567228802501	1
0	3677	634.603785079787	2
0	3679	634.688338967494	3
0	3680	634.866317968477	2
0	3684	634.874074335515	3
0	3685	635.301469520331	2
0	3689	635.553332311601	3
0	3690	635.736621072185	2
0	3692	635.736621072185	1
0	3694	636.171772624039	0
0	3713	639.001632828831	1
0	3714	639.164457633731	0
0	3718	639.25794311159	1
0	3720	639.380817060291	2
0	3721	639.599609185585	1
0	3725	639.816505701505	2
0	3726	640.034760737439	1
0	3730	640.206034075392	2
0	3731	640.469912289293	1
0	3734	640.905063841147	0
0	3783	653.102944735642	1
0	3784	653.247364745413	0
0	3798	654.768440942354	1
0	3799	655.128637014079	0
0	3803	655.450922045747	1
0	3804	655.563788565933	0
0	3813	656.391697131154	1
0	3814	656.506359774778	0
0	3818	656.638481572745	1
0	3821	657.146021510404	0
0	3834	659.098740036848	1
0	3835	659.242935495145	0
0	3854	668.722377899981	1
0	3855	668.838337091979	0
0	3874	673.433437513883	1
0	3875	673.631409847918	0
0	3894	678.511879705824	1
0	3895	678.612943284057	0
0	3899	678.674876743	1
0	3901	678.716099405431	2
0	3902	679.048094835911	1
0	3906	679.310452681764	2
0	3907	679.483246387765	1
0	3910	679.918397939619	0
0	3919	681.642895458446	1
0	3920	681.702057354364	0
0	3944	684.883525975841	1
0	3945	685.232868407023	0
0	3954	686.846147709398	1
0	3955	686.879209193282	0
0	3959	686.902856570482	1
0	3960	687.314360745136	0
0	3964	687.663847885872	1
0	3965	687.74951229699	0
0	3969	687.868052375931	1
0	3970	688.184663848844	0
0	3974	688.396780224205	1
0	3975	688.619815400698	0
0	3984	689.561122834534	1
0	3986	689.58060335875	2
0	3987	689.889885907568	1
0	3991	690.255656309575	2
0	3992	690.325037459422	1
0	3995	690.760189011276	0
0	4009	693.823348082673	1
0	4011	694.053731101577	2
0	4012	694.121850254298	1
0	4015	694.557001806152	0
0	4024	696.329264203451	1
0	4025	696.389545985342	0
0	4039	698.531937692835	1
0	4040	698.765739524599	0
0	4059	701.069209890642	1
0	4060	701.491262166256	0
0	4080	704.303783885849	1
0	4081	704.529261344567	0
0	4095	707.809111219742	1
0	4097	707.903362464091	2
0	4099	707.921946887694	3
0	4100	707.950686847954	2
0	4103	708.385838399808	1
0	4107	708.450431043531	2
0	4109	708.760278811023	3
0	4110	708.820989951662	2
0	4113	709.256141503516	1
0	4116	709.69129305537	0
0	4120	709.824371042736	1
0	4122	710.043620222727	2
0	4123	710.126444607224	1
0	4126	710.561596159078	0
0	4130	710.640682013504	1
0	4132	710.653649162712	2
0	4133	710.996747710932	1
0	4137	711.375462634428	2
0	4138	711.431899262786	1
0	4142	711.751721831058	2
0	4144	711.761481071675	3
0	4146	711.843129507754	4
0	4147	711.86705081464	3
0	4151	712.225615549572	4
0	4152	712.302202366494	3
0	4155	712.737353918348	2
0	4157	712.737353918348	1
0	4159	713.172505470202	0
0	4178	715.375867940022	1
0	4179	715.54586109016	0
0	4193	718.074818344703	1
0	4194	718.378323305223	0
0	4203	721.135753230041	1
0	4204	721.519356586576	0
0	4218	725.145058296364	1
0	4219	725.174183254788	0
0	4228	726.049872341303	1
0	4229	726.306838594415	0
0	4238	727.70324370075	1
0	4239	727.793182198463	0
0	4243	727.850972932445	1
0	4245	728.17590351886	2
0	4246	728.228333750317	1
0	4250	728.572113725822	2
0	4251	728.663485302171	1
0	4255	728.960821292104	2
0	4257	728.978561050178	3
0	4258	729.098636854025	2
0	4262	729.442229277236	3
0	4263	729.533788405879	2
0	4267	729.785636834195	3
0	4269	729.945661115712	4
0	4270	729.968939957733	3
0	4272	729.968939957733	2
0	4274	730.404091509587	1
0	4278	730.686566932915	2
0	4279	730.839243061441	1
0	4283	731.13029959902	2
0	4285	731.245926986396	3
0	4286	731.274394613295	2
0	4289	731.709546165149	1
0	4292	732.144697717003	0
0	4321	737.093342636772	1
0	4322	737.285004321618	0
0	4332	740.458154252224	1
0	4333	740.584252399165	0
0	4337	740.681319210787	1
0	4339	740.720562038371	2
0	4340	741.019403951019	1
0	4343	741.454555502873	0
0	4352	744.001053106679	1
0	4353	744.077892320088	0
0	4372	748.331512375726	1
0	4373	748.37277603963	0
0	4382	749.276059677764	1
0	4384	749.358411448793	2
0	4385	749.493743868424	1
0	4389	749.879314397227	2
0	4390	749.928895420278	1
0	4393	750.364046972132	0
0	4397	750.589372565965	1
0	4399	750.675447035254	2
0	4400	750.799198523986	1
0	4404	751.173585282521	2
0	4405	751.23435007584	1
0	4408	751.669501627694	0
0	4412	752.0506427133	1
0	4413	752.104653179548	0
0	4422	753.469742631118	1
0	4423	753.484535086358	0
0	4427	753.508424130288	1
0	4429	753.607122093608	2
0	4430	753.919686638212	1
0	4434	754.1788594078	2
0	4436	754.273817487994	3
0	4437	754.354838190066	2
0	4441	754.606242326189	3
0	4442	754.78998974192	2
0	4445	755.225141293774	1
0	4448	755.660292845628	0
0	4455	755.859353576331	1
0	4457	756.189862703613	2
0	4458	756.200224299338	1
0	4462	756.595883928172	2
0	4463	756.635375851192	1
0	4466	757.070527403046	0
0	4470	757.125121784744	1
0	4471	757.5056789549	0
0	4485	760.6511405394	1
0	4487	761.013920961424	2
0	4488	761.035710733928	1
0	4492	761.431094755377	2
0	4493	761.470862285782	1
0	4497	761.56639562177	2
0	4498	761.906013837636	1
0	4502	761.922619890362	2
0	4503	762.34116538949	1
0	4506	762.776316941344	0
0	4515	764.022653753521	1
0	4516	764.105479127024	0
0	4525	764.894291750327	1
0	4526	765.229578469177	0
0	4540	768.788039896963	1
0	4542	768.830763985985	2
0	4543	768.885113438064	1
0	4547	769.026279302194	2
0	4549	769.268473047594	3
0	4550	769.320264989918	2
0	4554	769.65498687443	3
0	4556	769.670084867248	4
0	4557	769.755416541772	3
0	4561	769.823670886581	4
0	4562	770.190568093626	3
0	4566	770.554199776299	4
0	4567	770.62571964548	3
0	4569	770.62571964548	2
0	4572	770.834522307748	3
0	4573	771.060871197334	2
0	4575	771.060871197334	1
0	4578	771.172827644144	2
0	4580	771.393613343421	3
0	4581	771.496022749188	2
0	4584	771.931174301042	1
0	4588	772.141401079547	2
0	4590	772.277698803909	3
0	4593	772.570836036668	2
0	4594	772.570836036668	1
0	4597	772.657852067	2
0	4598	773.005987588522	1
0	4601	773.441139140376	0
0	4605	773.790297589911	1
0	4606	773.87629069223	0
0	4610	773.921499577399	1
0	4611	774.311442244084	0
0	4625	778.090856406323	1
0	4627	778.422879339083	2
0	4628	778.461259635932	1
0	4632	778.466582963319	2
0	4634	778.75072502042	3
0	4635	778.896411187786	2
0	4639	779.134811265566	3
0	4640	779.33156273964	2
0	4643	779.766714291494	1
0	4645	779.766714291494	0
0	4658	783.271445898288	1
0	4660	783.371056294677	2
0	4661	783.657644396446	1
0	4664	784.0927959483	0
0	4673	784.732315364954	1
0	4674	784.971743403177	0
0	4718	801.196107140584	1
0	4719	801.377268562307	0
0	4723	801.443753707603	1
0	4724	801.812420114161	0
0	4728	802.107233653742	1
0	4729	802.247571666015	0
0	4738	803.790538406386	1
0	4739	803.886944535011	0
0	4743	804.071988777052	1
0	4744	804.322096086865	0
0	4748	804.359419968149	1
0	4749	804.757247638719	0
0	4768	806.574671431109	1
0	4769	806.982599905723	0
0	4798	813.575822963844	1
0	4799	813.755553848445	0
0	4813	816.116161617571	1
0	4814	816.167389424943	0
0	4843	822.294775697305	1
0	4845	822.42954083004	2
0	4849	822.71290141999	3
0	4850	822.785132540045	2
0	4852	823.220284091899	1
0	4855	823.655435643753	0
0	4859	823.816001744624	1
0	4860	824.090587195607	0
0	4874	826.383288784338	1
0	4875	826.401048539042	0
0	4879	826.732671938234	1
0	4880	826.836200090896	0
0	4884	826.870709813085	1
0	4885	827.27135164275	0
0	4889	827.388853697688	1
0	4890	827.706503194604	0
0	4894	827.790572706178	1
0	4896	827.819241197368	2
0	4898	827.88437622548	3
0	4899	828.141654746458	2
0	4902	828.576806298312	1
0	4905	829.011957850166	0
0	4917	832.69807522214	1
0	4918	832.852253694046	0
0	4922	833.069798047827	1
0	4923	833.2874052459	0
0	4942	836.326665023147	1
0	4943	836.737556169049	0
0	4947	836.78720909924	1
0	4949	836.807685289636	2
0	4951	836.97003926295	3
0	4952	837.172707720903	2
0	4955	837.607859272757	1
0	4958	838.043010824611	0
0	4985	842.918922488084	1
0	4986	843.18127090833	0
0	5000	844.612330789232	1
0	5001	845.000861682541	0
0	5005	845.030518860157	1
0	5006	845.436013234395	0
0	5010	845.813110888348	1
0	5011	845.871164786249	0
0	5035	851.320909493123	1
0	5036	851.445016788535	0
0	5045	852.464331444788	1
0	5046	852.616896843597	0
0	5050	852.829057714402	1
0	5052	852.957844451054	2
0	5053	853.052048395451	1
0	5057	853.428929024316	2
0	5058	853.487199947305	1
0	5061	853.922351499159	0
0	5075	854.987671895928	1
0	5076	855.340578411782	0
0	5085	856.470459886524	1
0	5086	856.687843934714	0
0	5095	858.063640421561	1
0	5097	858.140032297803	2
0	5098	858.2981822794	1
0	5102	858.550218228481	2
0	5104	858.565618003659	3
0	5108	858.93527846084	4
0	5109	858.937844015026	3
0	5111	859.37299556688	2
0	5114	859.808147118734	1
0	5116	859.808147118734	0
0	5129	866.909896099151	1
0	5130	866.912248901445	0
0	5179	877.149394582757	1
0	5180	877.522112563122	0
0	5184	877.528279952509	1
0	5186	877.898809806209	2
0	5187	877.957264114976	1
0	5190	878.39241566683	0
0	5204	881.155687524288	1
0	5205	881.217953041869	0
0	5214	882.764925851787	1
0	5215	883.026574688028	0
0	5234	887.361816158013	1
0	5235	887.39244618534	0
0	5249	889.525386589408	1
0	5250	889.53412528696	0
0	5254	889.912632646858	1
0	5255	889.969276838814	0
0	5259	890.331626777528	1
0	5260	890.404428390668	0
0	5284	899.832668740878	1
0	5285	900.065295941984	0
0	5299	902.493298439856	1
0	5300	902.910201754357	0
0	5304	903.190150713017	1
0	5305	903.345353306211	0
0	5324	908.38853927485	1
0	5326	908.42980653981	2
0	5327	908.440701592842	1
0	5331	908.552391302572	2
0	5333	908.564410287855	3
0	5334	908.875853144696	2
0	5337	909.31100469655	1
0	5340	909.746156248404	0
0	5347	911.720422341231	1
0	5348	911.826493251959	0
0	5357	912.519484679448	1
0	5360	913.114544512533	0
0	5368	914.016227880735	1
0	5369	914.415141769957	0
0	5373	914.777899235363	1
0	5374	914.850293321811	0
0	5388	916.198429270161	1
0	5389	916.327158018831	0
0	5408	920.598975310591	1
0	5409	920.952622172866	0
0	5423	924.180399229923	1
0	5425	924.387894806582	2
0	5426	924.460968782378	1
0	5429	924.896120334232	0
0	5443	930.142569894767	1
0	5444	930.281789261504	0
0	5483	939.014782260458	1
0	5484	939.129754772826	0
0	5488	939.336060940308	1
0	5489	939.56490632468	0
0	5503	941.91664044025	1
0	5504	942.029628177799	0
0	5518	943.665731892601	1
0	5519	943.719438608634	0
0	5533	945.444151783401	1
0	5534	945.625078317241	0
0	5558	950.052418973512	1
0	5559	950.242163580654	0
0	5573	955.220452863924	1
0	5575	955.238057534953	2
0	5576	955.331305531925	1
0	5579	955.766457083779	0
0	5588	957.228981265683	1
0	5589	957.626606600363	0
0	5593	957.796982872575	1
0	5594	958.061758152217	0
0	5598	958.216344226202	1
0	5600	958.229676062685	2
0	5601	958.496909704071	1
0	5604	958.932061255925	0
0	5614	960.639221669451	1
0	5615	960.710268557328	0
0	5624	962.355682519286	1
0	5625	962.512017430491	0
0	5629	962.651575606598	1
0	5630	962.947168982345	0
0	5634	963.186170563676	1
0	5636	963.277102389786	2
0	5637	963.382320534199	1
0	5641	963.632029844743	2
0	5642	963.817472086053	1
0	5645	964.252623637907	0
0	5649	964.269470857134	1
0	5651	964.531574175514	2
0	5653	964.585774556845	3
0	5654	964.687775189761	2
0	5658	965.01966423281	3
0	5659	965.122926741615	2
0	5662	965.558078293469	1
0	5664	965.558078293469	0
0	5682	969.127500460591	1
0	5684	969.414126280601	2
0	5685	969.478881275141	1
0	5688	969.914032826995	0
0	5692	970.327186685797	1
0	5693	970.349184378849	0
0	5702	972.896611070754	1
0	5703	973.295518408513	0
0	5722	975.724337267313	1
0	5723	975.920862284818	0
0	5742	981.985457082677	1
0	5743	982.284034475268	0
0	5757	984.419558194399	1
0	5758	984.494115194302	0
0	5772	988.991839917023	1
0	5774	988.996693157405	2
0	5775	989.197421459181	1
0	5779	989.356316420994	2
0	5780	989.632573011035	1
0	5784	989.926977877053	2
0	5785	990.067724562889	1
0	5789	990.318519993804	2
0	5790	990.502876114743	1
0	5793	990.938027666597	0
0	5797	990.956491684297	1
0	5799	991.173607092596	2
0	5800	991.373179218451	1
0	5803	991.808330770305	0
0	5807	992.110457215075	1
0	5808	992.243482322159	0
0	5812	992.310786142951	1
0	5814	992.676177893466	2
0	5815	992.678633874013	1
0	5819	993.036033509104	2
0	5820	993.113785425867	1
0	5823	993.548936977721	0
0	5832	995.546445860427	1
0	5834	995.668032556652	2
0	5835	995.940349468398	1
0	5838	996.375501020252	0
0	5852	999.458315909637	1
0	5853	999.856362349432	0
1	8	1.088242421406	0.420963581977
1	13	1.52339397326	0.51887518732
1	16	1.958545525114	0.6198739296
1	21	2.393697076968	0.297001568047
1	26	2.828848628822	0.348812562578
1	31	3.264000180676	0.020344268742
1	40	3.69915173253	0.414238090033
1	47	4.134303284384	0.586024958147
1	50	4.569454836238	0.929170866692
1	53	5.004606388092	0.98729465295
1	55	5.004606388092	0.901863524548
1	64	7.406063880349	0.200508329431
1	69	7.841215432203	0.317114361164
1	84	10.420342127053	0.39099222514
1	94	13.27186902701	0.383161886752
1	101	13.707020578864	0.291581621242
1	104	14.142172130718	0.499416110279
1	109	14.577323682572	0.105909842282
1	120	15.012475234426	0.351246170079
1	125	15.44762678628	0.757869645331
1	130	15.882778338134	1.033182242087
1	132	15.882778338134	1.005770553499
1	133	15.882778338134	0.558485492434
1	135	16.317929889988	0.672156591848
1	155	19.71715989151	0.271196900666
1	175	30.549215244556	0.312867993556
1	185	31.7513199332	0.307396184351
1	190	32.186471485054	0.190804584389
1	200	33.059157311158	0.322101092269
1	210	34.256009896518	0.342331642819
1	220	35.442456109344	0.399163924719
1	225	35.877607661198	0.10871075302
1	230	36.312759213052	0.310622978382
1	240	40.061553591317	0.373315497808
1	262	47.658187764386	0.452326219357
1	276	51.037676671972	0.017612631094
1	281	51.472828223826	0.218315871512
1	293	53.198191480449	0.332936387337
1	296	53.633343032303	0.585377909337
1	303	54.068494584157	0.273043437548
1	306	54.503646136011	0.490627820539
1	318	55.474752303565	0.240797616646
1	321	55.909903855419	0.559620262134
1	331	58.541627799514	0.330036285367
1	341	59.495599273531	0.43204534352
1	346	59.930750825385	0.193200046259
1	356	60.874896592878	0.283596475274
1	361	61.310048144732	0.170854854864
1	371	62.857034209164	0.087419367365
1	381	64.116399974095	0.178900761424
1	391	65.153821416916	0.079086539107
1	416	73.36175982774	0.281074353754
1	428	76.64098495907	0.155063786926
1	431	77.076136510924	0.553801992436
1	446	80.541845898791	0.125127597588
1	476	85.647145512671	0.128546675635
1	481	86.082297064525	0.387533555283
1	486	86.517448616379	0.31189016328
1	496	87.500527938342	0.366370935256
1	501	87.935679490196	0.142211272356
1	506	88.37083104205	0.19473868562
1	513	89.010492777676	0.151037431794
1	519	89.44564432953	0.336270965407
1	522	89.880795881384	0.592453327962
1	529	90.315947433238	0.392579714811
1	538	90.751098985092	0.500862733873
1	541	91.186250536946	0.66746594588
1	546	91.6214020888	0.93530324968
1	553	92.056553640654	1.33470184151
1	555	92.056553640654	0.53407952708
1	557	92.491705192508	0.808818480885
1	560	92.926856744362	0.960978442119
1	570	97.890219562026	0.314910392417
1	577	98.32537111388	0.394435277717
1	580	98.760522665734	0.499862191199
1	590	99.744167685523	0.271278254945
1	610	102.497573016413	0.041413728092
1	625	104.620917208732	0.233016851031
1	630	105.056068760586	0.4341230149
1	647	108.195311616227	0.253909107858
1	650	108.630463168081	0.582688251081
1	660	111.120028368125	0.115055840146
1	665	111.555179919979	0.148084509945
1	680	114.306381599731	0.379682110153
1	700	121.378796116004	0.35342089701
1	720	126.61789917222	0.295080485898
1	725	127.053050724074	0.273712572783
1	730	127.488202275928	0.029484545924
1	745	130.150549113163	0.298811165673
1	750	130.585700665017	0.053037465509
1	767	133.28907187693	0.178655423706
1	780	134.544517199905	0.329206680205
1	783	134.979668751759	0.70562928072
1	788	135.414820303613	1.037400766989
1	790	135.414820303613	0.290514545015
1	829	141.396646281742	0.263437257467
1	841	143.245139784934	0.356731009958
1	846	143.680291336788	0.721188427631
1	849	144.115442888642	0.732303321794
1	859	145.494881971075	0.213952252034
1	864	145.930033522929	0.389120591853
1	884	148.78743315241	0.410284897864
1	914	154.794622233337	0.363739561555
1	919	155.229773785191	0.28373151646
1	939	157.938123151838	0.30903318959
1	944	158.373274703692	0.361476052568
1	964	162.577939737898	0.255808048016
1	986	167.250278087584	0.333972391059
1	989	167.685429639438	0.58806297572
1	1009	172.245936342984	0.068154327278
1	1021	173.824948716171	0.562553889224
1	1040	178.288314157873	0.350317787856
1	1050	179.560769465418	0.395142627638
1	1077	184.157740621213	0.390562447859
1	1080	184.592892173067	0.501875404937
1	1085	185.028043724921	0.277459215427
1	1095	188.672073126933	0.298542660539
1	1117	193.701131806599	0.280147733798
1	1124	194.136283358453	0.694173221023
1	1127	194.571434910307	0.655857059361
1	1132	195.006586462161	0.930955819347
1	1135	195.441738014015	0.500711817881
1	1152	197.279340147204	0.329403993314
1	1155	197.714491699058	0.634468685708
1	1195	206.586158723676	0.175979400236
1	1200	207.02131027553	0.314243979643
1	1212	208.499508881212	0.157800299485
1	1217	208.934660433066	0.591010823606
1	1222	209.36981198492	0.723767371617
1	1225	209.804963536774	0.785780977003
1	1230	210.240115088628	0.19706241514
1	1260	218.375964764636	0.313099985288
1	1265	218.81111631649	0.258054656376
1	1301	227.746872987462	0.397131622013
1	1306	228.182024539316	0.098341615115
1	1326	232.17316858074	0.365973719588
1	1331	232.608320132594	0.221624211442
1	1341	235.091369942229	0.363353933885
1	1356	239.153572868915	0.315284346132
1	1371	243.231419822193	0.355244513334
1	1391	246.162773797842	0.066164376301
1	1411	252.843823525677	0.241606946683
1	1418	253.278975077531	0.141915920085
1	1423	253.714126629385	0.439315973853
1	1426	254.149278181239	0.834767663929
1	1431	254.584429733093	0.321200467276
1	1456	258.150870726367	0.300417713064
1	1481	262.88791179074	0.151179007578
1	1503	267.192790937024	0.180929614513
1	1506	267.627942488878	0.609547265443
1	1523	270.348489414394	0.286863606138
1	1529	270.783640966248	0.41629612343
1	1532	271.218792518102	0.583928656744
1	1542	272.478006934644	0.376975261716
1	1566	276.698386862381	0.368632352658
1	1571	277.133538414235	0.528575787838
1	1574	277.568689966089	0.887180747484
1	1579	278.003841517943	1.279555162114
1	1581	278.003841517943	0.124807577388
1	1602	282.402857633233	0.257179338947
1	1605	282.838009185087	0.625773185267
1	1617	283.743095332492	0.345935248254
1	1622	284.178246884346	0.732816784547
1	1627	284.6133984362	0.540200832242
1	1630	285.048549988054	0.461584072281
1	1637	285.483701539908	0.115320818559
1	1646	285.918853091762	0.534665747493
1	1649	286.354004643616	0.741377012197
1	1652	286.78915619547	1.149442358115
1	1654	286.78915619547	0.932411888443
1	1658	287.224307747324	0.306142849696
1	1665	287.659459299178	0.194981755274
1	1668	288.094610851032	0.578754331047
1	1697	291.827855559659	0.391054055844
1	1700	292.263007111513	0.757741582304
1	1703	292.698158663367	1.151996798818
1	1721	294.662523550665	0.23342183146
1	1726	295.097675102519	0.121884625777
1	1731	295.532826654373	0.373873346119
1	1765	299.391316789433	0.38441892542
1	1770	299.826468341287	0.770081469325
1	1773	300.261619893141	0.99346028029
1	1775	300.261619893141	0.488679262632
1	1786	301.879251035691	0.33739181482
1	1800	305.120008190279	0.296357181812
1	1815	306.687062915489	0.158811625405
1	1825	311.526459122808	0.299771199904
1	1830	311.961610674662	0.37068564621
1	1850	315.886661401632	0.113753088511
1	1857	316.321812953486	0.311389283231
1	1862	316.75696450534	0.550279343214
1	1869	317.192116057194	0.473630070318
1	1874	317.627267609048	0.820986284017
1	1877	318.062419160902	1.103144199666
1	1879	318.062419160902	0.573664807568
1	1903	323.605192087447	0.23839328313
1	1923	327.633370623433	0.104636149112
1	1933	329.925227522848	0.413274020465
1	1943	331.163152745058	0.065787848574
1	1959	333.583722608407	0.376754041431
1	1962	334.018874160261	0.600323716996
1	1965	334.454025712115	0.996081104926
1	1967	334.454025712115	0.931402920246
1	1971	334.889177263969	0.225745102463
1	1976	335.324328815823	0.432462123079
1	1981	335.759480367677	0.218580092574
1	2001	341.979037632659	0.087584402387
1	2006	342.414189184513	0.077996581508
1	2026	347.833762242476	0.178955261214
1	2031	348.26891379433	0.186411239019
1	2047	351.375916055758	0.336964653761
1	2062	353.841169782184	0.426683636285
1	2067	354.276321334038	0.166005151807
1	2072	354.711472885892	0.077328216671
1	2097	361.480695189578	0.400642974819
1	2119	365.687211418008	0.394447915108
1	2122	366.122362969862	0.75276160878
1	2142	371.481009792823	0.261218428816
1	2147	371.916161344677	0.200867976738
1	2152	372.351312896531	0.053572800206
1	2167	376.436352283065	0.341340286199
1	2192	380.625312845568	0.434545500373
1	2197	381.060464397422	0.35476714513
1	2217	384.929240430308	0.225495338948
1	2222	385.364391982162	0.161881395448
1	2227	385.799543534016	0.206642532553
1	2242	387.788431768905	0.364642436012
1	2251	388.223583320759	0.303389037374
1	2254	388.658734872613	0.527171380626
1	2259	389.093886424467	0.915678047869
1	2266	389.529037976321	0.617434173061
1	2269	389.964189528175	0.705555613175
1	2272	390.399341080029	0.996461187067
1	2285	396.428553784865	0.265616412237
1	2310	399.619886306843	0.238225756605
1	2315	400.055037858697	0.5754501456
1	2318	400.490189410551	0.934925915098
1	2321	400.925340962405	1.260447826112
1	2359	409.83370561816	0.007061849173
1	2366	410.268857170014	0.209936754791
1	2371	410.704008721868	0.609779049405
1	2374	411.139160273722	0.625706862657
1	2381	411.574311825576	0.356713587864
1	2386	412.00946337743	0.529871265308
1	2391	412.444614929284	0.818265317057
1	2396	412.879766481138	0.447602625572
1	2399	413.314918032992	0.581490468689
1	2404	413.750069584846	0.307130161049
1	2416	416.055292388591	0.276986886387
1	2419	416.490443940445	0.65715087189
1	2431	417.514560724844	0.267525082535
1	2434	417.949712276698	0.519173672776
1	2449	421.069585438182	0.026222163739
1	2459	422.812951595645	0.184048696169
1	2484	431.722778008169	0.225563715217
1	2491	432.157929560023	0.39371579201
1	2494	432.593081111877	0.709233014683
1	2516	435.962653013165	0.267876651815
1	2519	436.397804565019	0.504992064853
1	2539	440.322793972381	0.3897365038
1	2551	441.823383557541	0.220256545001
1	2555	442.258535109395	0.000770214217
1	2570	444.024208398461	0.225594052719
1	2595	449.489349993856	0.093191778359
1	2615	452.584100786739	0.296279156574
1	2620	453.019252338593	0.133464488165
1	2627	453.454403890447	0.394273472449
1	2630	453.889555442301	0.443376853791
1	2635	454.324706994155	0.392096307194
1	2665	459.856366850798	0.373983517613
1	2724	472.610939421449	0.258534111607
1	2729	473.046090973303	0.473125241375
1	2732	473.481242525157	0.875617874823
1	2735	473.916394077011	1.169999806379
1	2753	475.99132330246	0.341834208375
1	2760	476.426474854314	0.335083298085
1	2763	476.861626406168	0.529129700941
1	2768	477.296777958022	0.365018847865
1	2773	477.731929509876	0.206392601121
1	2783	479.34069166205	0.254882272142
1	2793	480.420032051673	0.267968235856
1	2798	480.855183603527	0.072054750771
1	2807	481.494845339153	0.390463531498
1	2809	481.929996891007	0.587356409753
1	2821	483.491647097212	0.315808003578
1	2826	483.926798649066	0.732944159591
1	2829	484.36195020092	0.598515703776
1	2849	488.663801059993	0.252804825227
1	2858	489.098952611847	0.364272406624
1	2863	489.534104163701	0.585226514606
1	2866	489.969255715555	0.978674289218
1	2868	489.969255715555	0.43887096495
1	2877	492.681263323147	0.382167210102
1	2922	503.735395010784	0.397647198935
1	2927	504.170546562638	0.165388295038
1	2932	504.605698114492	0.086424887072
1	2962	514.687325512878	0.285014559828
1	2972	517.096872195373	0.155722205717
1	2987	519.048242328456	0.352674949908
1	3009	522.601547389629	0.383734590405
1	3012	523.036698941483	0.46380342495
1	3027	525.239925895209	0.046980689379
1	3047	529.662964801528	0.312115532016
1	3073	535.64862386406	0.010177792936
1	3078	536.083775415914	0.427909641715
1	3085	536.518926967768	0.299667008149
1	3088	536.954078519622	0.4713167929
1	3093	537.389230071476	0.236818150742
1	3098	537.82438162333	0.02144171798
1	3123	541.649312268087	0.234903840472
1	3128	542.084463819941	0.104061426723
1	3158	549.896028961176	0.295190790453
1	3163	550.33118051303	0.186564486962
1	3173	551.761997330628	0.21599944741
1	3178	552.197148882482	0.39439820014
1	3195	554.496344646895	0.117027844959
1	3202	554.931496198749	0.51871875248
1	3207	555.366647750603	0.659491885341
1	3210	555.801799302457	1.043100216671
1	3212	555.801799302457	0.603566944471
1	3221	556.933585847363	0.18027505949
1	3236	560.213840396279	0.10412289742
1	3246	562.02969652698	0.336558092588
1	3261	564.228587032099	0.173311173719
1	3266	564.663738583953	0.362806400872
1	3295	569.840748938758	0.258718868696
1	3298	570.275900490612	0.545067807216
1	3303	570.711052042466	0.891355771202
1	3306	571.14620359432	0.826910504871
1	3324	575.690888492574	0.416886788038
1	3327	576.126040044428	0.850636906234
1	3364	586.317483910586	0.381602175786
1	3367	586.75263546244	0.670159570064
1	3372	587.187787014294	0.111576947075
1	3394	590.669760129016	0.396936972256
1	3397	591.10491168087	0.685281312604
1	3402	591.540063232724	0.190382136991
1	3422	595.61768991338	0.262851299532
1	3437	598.279169886386	0.303288297903
1	3477	607.074300651143	0.132128223758
1	3482	607.509452202997	0.068141445255
1	3487	607.944603754851	0.19148634354
1	3507	612.362051032432	0.104941103355
1	3517	613.520922053705	0.126686671905
1	3527	615.203890381797	0.348625516841
1	3534	615.639041933651	0.425719679132
1	3537	616.074193485505	0.532977173329
1	3552	617.781478111582	0.023948934534
1	3568	619.62516939331	0.211159661385
1	3573	620.060320945164	0.299368633293
1	3630	630.435293538506	0.285239580207
1	3637	630.87044509036	0.651695102714
1	3642	631.305596642214	0.859192387357
1	3645	631.740748194068	1.067678628002
1	3647	631.740748194068	0.869714556529
1	3651	632.175899745922	0.147014510545
1	3658	632.611051297776	0.225401682765
1	3663	633.04620284963	0.604976037912
1	3666	633.481354401484	0.451458350347
1	3680	634.866317968477	0.299089165976
1	3685	635.301469520331	0.697684440544
1	3690	635.736621072185	1.048282104691
1	3692	635.736621072185	0.86254673667
1	3694	636.171772624039	0.618440312438
1	3714	639.164457633731	0.1628248049
1	3721	639.599609185585	0.341666073995
1	3726	640.034760737439	0.653943677148
1	3731	640.469912289293	0.653406587788
1	3734	640.905063841147	0.699029765755
1	3784	653.247364745413	0.144420009771
1	3799	655.128637014079	0.360196071725
1	3804	655.563788565933	0.112866520186
1	3814	656.506359774778	0.114662643624
1	3821	657.146021510404	0.507539937659
1	3835	659.242935495145	0.144195458297
1	3855	668.838337091979	0.115959191998
1	3875	673.631409847918	0.197972334035
1	3895	678.612943284057	0.101063578233
1	3902	679.048094835911	0.373218092911
1	3907	679.483246387765	0.767146982334
1	3910	679.918397939619	0.607945257855
1	3920	681.702057354364	0.059161895918
1	3945	685.232868407023	0.349342431182
1	3955	686.879209193282	0.033061483884
1	3960	687.314360745136	0.411504174654
1	3965	687.74951229699	0.085664411118
1	3970	688.184663848844	0.316611472913
1	3975	688.619815400698	0.223035176493
1	3987	689.889885907568	0.328763073034
1	3992	690.325037459422	0.744434100672
1	3995	690.760189011276	0.504532701701
1	4012	694.121850254298	0.298502171625
1	4015	694.557001806152	0.503270704575
1	4025	696.389545985342	0.060281781891
1	4040	698.765739524599	0.233801831764
1	4060	701.491262166256	0.422052275614
1	4081	704.529261344567	0.225477458718
1	4100	707.950686847954	0.141575628212
1	4103	708.385838399808	0.482475935717
1	4110	708.820989951662	0.899043063968
1	4113	709.256141503516	0.805710459985
1	4116	709.69129305537	0.931014244347
1	4123	710.126444607224	0.302073564488
1	4126	710.561596159078	0.517975936351
1	4133	710.996747710932	0.356065697428
1	4138	711.431899262786	0.778250100074
1	4147	711.86705081464	0.491588180212
1	4152	712.302202366494	0.550480535436
1	4155	712.737353918348	0.975872846673
1	4157	712.737353918348	0.894224410594
1	4159	713.172505470202	0.94688992063
1	4179	715.54586109016	0.169993150138
1	4194	718.378323305223	0.30350496052
1	4204	721.519356586576	0.383603356535
1	4219	725.174183254788	0.029124958424
1	4229	726.306838594415	0.256966253112
1	4239	727.793182198463	0.089938497713
1	4246	728.228333750317	0.377360817872
1	4251	728.663485302171	0.487581783311
1	4258	729.098636854025	0.526523128203
1	4263	729.533788405879	0.572967113775
1	4270	729.968939957733	0.990378907555
1	4272	729.968939957733	0.526710680497
1	4274	730.404091509587	0.618454675392
1	4279	730.839243061441	0.893581945729
1	4286	731.274394613295	0.58782768038
1	4289	731.709546165149	0.579246566129
1	4292	732.144697717003	0.898770730607
1	4322	737.285004321618	0.191661684846
1	4333	740.584252399165	0.126098146941
1	4340	741.019403951019	0.338084740232
1	4343	741.454555502873	0.733993464502
1	4353	744.077892320088	0.076839213409
1	4373	748.37277603963	0.041263663904
1	4385	749.493743868424	0.21768419066
1	4390	749.928895420278	0.570483971485
1	4393	750.364046972132	0.484732574905
1	4400	750.799198523986	0.209825958021
1	4405	751.23435007584	0.558903040586
1	4408	751.669501627694	0.495916345173
1	4413	752.104653179548	0.054010466248
1	4423	753.484535086358	0.01479245524
1	4430	753.919686638212	0.411262507924
1	4437	754.354838190066	0.747716096458
1	4442	754.78998974192	0.61113033412
1	4445	755.225141293774	0.95132380578
1	4448	755.660292845628	1.054050519439
1	4458	756.200224299338	0.340870723007
1	4463	756.635375851192	0.445513147579
1	4466	757.070527403046	0.474643474874
1	4471	757.5056789549	0.380557170156
1	4488	761.035710733928	0.384570194528
1	4493	761.470862285782	0.456941324358
1	4498	761.906013837636	0.474919082259
1	4503	762.34116538949	0.77476976772
1	4506	762.776316941344	0.853697050982
1	4516	764.105479127024	0.082825373503
1	4526	765.229578469177	0.33528671885
1	4543	768.885113438064	0.097073541101
1	4550	769.320264989918	0.489501003933
1	4557	769.755416541772	0.729137239578
1	4562	770.190568093626	0.922095046032
1	4567	770.62571964548	0.97073277105
1	4569	770.62571964548	0.955634778232
1	4573	771.060871197334	1.237200310753
1	4575	771.060871197334	0.506671421035
1	4581	771.496022749188	0.66150044144
1	4584	771.931174301042	0.758346656898
1	4593	772.570836036668	1.177222693247
1	4594	772.570836036668	0.429434957121
1	4598	773.005987588522	0.728288784613
1	4601	773.441139140376	0.783287073376
1	4606	773.87629069223	0.085993102319
1	4611	774.311442244084	0.389942666685
1	4628	778.461259635932	0.370403229609
1	4635	778.896411187786	0.473531848703
1	4640	779.33156273964	0.864979776321
1	4643	779.766714291494	1.015989271074
1	4645	779.766714291494	0.631903025928
1	4661	783.657644396446	0.386198498158
1	4664	784.0927959483	0.721739653623
1	4674	784.971743403177	0.239428038223
1	4719	801.377268562307	0.181161421723
1	4724	801.812420114161	0.368666406558
1	4729	802.247571666015	0.140338012273
1	4739	803.886944535011	0.096406128625
1	4744	804.322096086865	0.250107309813
1	4749	804.757247638719	0.39782767057
1	4769	806.982599905723	0.407928474614
1	4799	813.755553848445	0.179730884601
1	4814	816.167389424943	0.051227807372
1	4850	822.785132540045	0.49035684274
1	4852	823.220284091899	0.790743261859
1	4855	823.655435643753	0.942534223763
1	4860	824.090587195607	0.274585450983
1	4875	826.401048539042	0.017759754704
1	4880	826.836200090896	0.103528152662
1	4885	827.27135164275	0.400641829665
1	4890	827.706503194604	0.317649496916
1	4899	828.141654746458	0.35108204028
1	4902	828.576806298312	0.757565100944
1	4905	829.011957850166	1.127581624686
1	4918	832.852253694046	0.154178471906
1	4923	833.2874052459	0.217607198073
1	4943	836.737556169049	0.410891145902
1	4952	837.172707720903	0.385498621663
1	4955	837.607859272757	0.800173983121
1	4958	838.043010824611	1.072971561661
1	4986	843.18127090833	0.262348420246
1	5001	845.000861682541	0.388530893309
1	5006	845.436013234395	0.405494374238
1	5011	845.871164786249	0.058053897901
1	5036	851.445016788535	0.124107295412
1	5046	852.616896843597	0.152565398809
1	5053	853.052048395451	0.222990681049
1	5058	853.487199947305	0.529355496251
1	5061	853.922351499159	0.493422474843
1	5076	855.340578411782	0.352906515854
1	5086	856.687843934714	0.21738404819
1	5098	858.2981822794	0.234541857839
1	5109	858.937844015026	0.797811717223
1	5111	859.37299556688	0.822777338399
1	5114	859.808147118734	1.242529115075
1	5116	859.808147118734	0.872868657894
1	5130	866.912248901445	0.002352802294
1	5180	877.522112563122	0.372717980365
1	5187	877.957264114976	0.428984162467
1	5190	878.39241566683	0.493605860621
1	5205	881.217953041869	0.062265517581
1	5215	883.026574688028	0.261648836241
1	5235	887.39244618534	0.030630027327
1	5250	889.53412528696	0.008738697552
1	5255	889.969276838814	0.056644191956
1	5260	890.404428390668	0.07280161314
1	5285	900.065295941984	0.232627201106
1	5300	902.910201754357	0.416903314501
1	5305	903.345353306211	0.155202593194
1	5327	908.440701592842	0.052162317992
1	5334	908.875853144696	0.446046604886
1	5337	909.31100469655	0.758613393978
1	5340	909.746156248404	1.181745960549
1	5348	911.826493251959	0.106070910728
1	5360	913.114544512533	0.595059833085
1	5369	914.415141769957	0.398913889222
1	5374	914.850293321811	0.072394086448
1	5389	916.327158018831	0.12872874867
1	5409	920.952622172866	0.353646862275
1	5426	924.460968782378	0.280569552455
1	5429	924.896120334232	0.50822552765
1	5444	930.281789261504	0.139219366737
1	5484	939.129754772826	0.114972512368
1	5489	939.56490632468	0.228845384372
1	5504	942.029628177799	0.112987737549
1	5519	943.719438608634	0.053706716033
1	5534	945.625078317241	0.18092653384
1	5559	950.242163580654	0.189744607142
1	5576	955.331305531925	0.110852668001
1	5579	955.766457083779	0.528399548826
1	5589	957.626606600363	0.39762533468
1	5594	958.061758152217	0.264775279642
1	5601	958.496909704071	0.280565477869
1	5604	958.932061255925	0.70238519324
1	5615	960.710268557328	0.071046887877
1	5625	962.512017430491	0.156334911205
1	5630	962.947168982345	0.295593375747
1	5637	963.382320534199	0.196149970523
1	5642	963.817472086053	0.540369696267
1	5645	964.252623637907	0.620593793164
1	5654	964.687775189761	0.418304332627
1	5659	965.122926741615	0.591352566101
1	5662	965.558078293469	0.972303736624
1	5664	965.558078293469	0.538414060659
1	5685	969.478881275141	0.35138081455
1	5688	969.914032826995	0.499906546394
1	5693	970.349184378849	0.021997693052
1	5703	973.295518408513	0.398907337759
1	5723	975.920862284818	0.196525017505
1	5743	982.284034475268	0.298577392591
1	5758	984.494115194302	0.074556999903
1	5775	989.197421459181	0.205581542158
1	5780	989.632573011035	0.63587985363
1	5785	990.067724562889	0.711408141895
1	5790	990.502876114743	0.57589823769
1	5793	990.938027666597	0.619507672793
1	5800	991.373179218451	0.416687534154
1	5803	991.808330770305	0.634723677709
1	5808	992.243482322159	0.133025107084
1	5815	992.678633874013	0.367847731062
1	5820	993.113785425867	0.437607532401
1	5823	993.548936977721	0.512903468617
1	5835	995.940349468398	0.393903607971
1	5838	996.375501020252	0.7074684636
1	5853	999.856362349432	0.398046439795
2	9	1.088242421406	0.435151551854
2	14	1.52339397326	0.856115133831
2	17	1.958545525114	0.954026739174
2	22	2.393697076968	1.055025481454
2	27	2.828848628822	0.732153119901
2	32	3.264000180676	0.783964114432
2	41	3.69915173253	0.455495820596
2	48	4.134303284384	0.849389641887
2	51	4.569454836238	1.021176510001
2	54	5.004606388092	1.364322418546
2	58	5.439757939946	1.337015076402
2	65	7.406063880349	0.435151551854
2	70	7.841215432203	0.635659881285
2	73	8.276366984057	0.752265913018
2	78	9.682109962356	0.435151551854
2	85	10.420342127053	0.435151551854
2	88	10.855493678907	0.826143776994
2	95	13.27186902701	0.435151551854
2	102	13.707020578864	0.818313438606
2	105	14.142172130718	0.726733173096
2	110	14.577323682572	0.934567662133
2	121	15.012475234426	0.541061394136
2	126	15.44762678628	0.786397721933
2	131	15.882778338134	1.193021197185
2	136	16.317929889988	0.993637044288
2	139	16.753081441842	1.107308143702
2	144	18.449930819774	0.435151551854
2	149	19.192930783118	0.435151551854
2	156	19.71715989151	0.435151551854
2	159	20.152311443364	0.70634845252
2	164	22.563057122894	0.435151551854
2	169	23.392102503057	0.435151551854
2	176	30.549215244556	0.435151551854
2	179	30.98436679641	0.74801954541
2	186	31.7513199332	0.435151551854
2	191	32.186471485054	0.742547736205
2	194	32.621623036908	0.625956136243
2	201	33.059157311158	0.435151551854
2	204	33.494308863012	0.757252644123
2	211	34.256009896518	0.435151551854
2	214	34.691161448372	0.777483194673
2	221	35.442456109344	0.435151551854
2	226	35.877607661198	0.834315476573
2	231	36.312759213052	0.543862304874
2	234	36.747910764906	0.745774530236
2	241	40.061553591317	0.435151551854
2	244	40.496705143171	0.808467049662
2	249	41.420825842033	0.435151551854
2	254	45.936507002448	0.435151551854
2	261	47.453677580614	0.435151551854
2	265	48.09333931624	0.887477771211
2	270	49.253591857632	0.435151551854
2	277	51.037676671972	0.435151551854
2	282	51.472828223826	0.452764182948
2	285	51.90797977568	0.653467423366
2	294	53.198191480449	0.435151551854
2	297	53.633343032303	0.768087939191
2	304	54.068494584157	1.020529461191
2	307	54.503646136011	0.708194989402
2	310	54.938797687865	0.925779372393
2	319	55.474752303565	0.435151551854
2	322	55.909903855419	0.6759491685
2	325	56.345055407273	0.994771813988
2	332	58.541627799514	0.435151551854
2	335	58.976779351368	0.765187837221
2	342	59.495599273531	0.435151551854
2	347	59.930750825385	0.867196895374
2	350	60.365902377239	0.628351598113
2	357	60.874896592878	0.435151551854
2	362	61.310048144732	0.718748027128
2	365	61.745199696586	0.606006406718
2	372	62.857034209164	0.435151551854
2	375	63.292185761018	0.522570919219
2	382	64.116399974095	0.435151551854
2	385	64.551551525949	0.614052313278
2	392	65.153821416916	0.435151551854
2	395	65.58897296877	0.514238090961
2	400	66.077158627615	0.435151551854
2	405	68.189412798433	0.435151551854
2	410	69.958329646932	0.435151551854
2	417	73.36175982774	0.435151551854
2	420	73.796911379594	0.716225905608
2	429	76.64098495907	0.435151551854
2	432	77.076136510924	0.59021533878
2	435	77.511288062778	0.98895354429
2	440	79.166550325569	0.435151551854
2	447	80.541845898791	0.435151551854
2	450	80.976997450645	0.560279149442
2	455	82.531095846064	0.435151551854
2	460	83.198028278696	0.435151551854
2	465	83.806175328363	0.435151551854
2	470	84.600156590513	0.435151551854
2	477	85.647145512671	0.435151551854
2	482	86.082297064525	0.563698227489
2	487	86.517448616379	0.822685107137
2	490	86.952600168233	0.747041715134
2	497	87.500527938342	0.435151551854
2	502	87.935679490196	0.80152248711
2	507	88.37083104205	0.57736282421
2	510	88.805982593904	0.629890237474
2	520	89.44564432953	0.586188983648
2	523	89.880795881384	0.771422517261
2	530	90.315947433238	1.027604879816
2	539	90.751098985092	0.827731266665
2	542	91.186250536946	0.936014285727
2	547	91.6214020888	1.102617497734
2	554	92.056553640654	1.370454801534
2	558	92.491705192508	0.969231078934
2	561	92.926856744362	1.243970032739
2	564	93.362008296216	1.396129993973
2	571	97.890219562026	0.435151551854
2	578	98.32537111388	0.750061944271
2	581	98.760522665734	0.829586829571
2	584	99.195674217588	0.935013743053
2	591	99.744167685523	0.435151551854
2	594	100.179319237377	0.706429806799
2	599	100.880183245489	0.435151551854
2	604	101.330295452162	0.435151551854
2	611	102.497573016413	0.435151551854
2	614	102.932724568267	0.476565279946
2	619	104.113373825791	0.435151551854
2	626	104.620917208732	0.435151551854
2	631	105.056068760586	0.668168402885
2	634	105.49122031244	0.869274566754
2	639	107.178082669284	0.435151551854
2	648	108.195311616227	0.435151551854
2	651	108.630463168081	0.689060659712
2	654	109.065614719935	1.017839802935
2	661	111.120028368125	0.435151551854
2	666	111.555179919979	0.550207392
2	669	111.990331471833	0.583236061799
2	674	113.095076310925	0.435151551854
2	681	114.306381599731	0.435151551854
2	684	114.741533151585	0.814833662007
2	689	115.461409948643	0.435151551854
2	694	119.866828183813	0.435151551854
2	701	121.378796116004	0.435151551854
2	704	121.813947667858	0.788572448864
2	709	124.840195897464	0.435151551854
2	714	126.045275129646	0.435151551854
2	721	126.61789917222	0.435151551854
2	726	127.053050724074	0.730232037752
2	731	127.488202275928	0.708864124637
2	734	127.923353827782	0.464636097778
2	739	129.420996609395	0.435151551854
2	746	130.150549113163	0.435151551854
2	751	130.585700665017	0.733962717527
2	754	131.020852216871	0.488189017363
2	759	132.016018362962	0.435151551854
2	764	133.084561693158	0.435151551854
2	770	133.724223428784	0.61380697556
2	781	134.544517199905	0.435151551854
2	784	134.979668751759	0.764358232059
2	789	135.414820303613	1.140780832574
2	793	135.849971855467	0.725666096869
2	798	136.303266678532	0.435151551854
2	803	137.306053073597	0.435151551854
2	808	138.005194606206	0.435151551854
2	813	138.806361536548	0.435151551854
2	818	139.317527798316	0.435151551854
2	823	140.403035828326	0.435151551854
2	830	141.396646281742	0.435151551854
2	833	141.831797833596	0.698588809321
2	842	143.245139784934	0.435151551854
2	847	143.680291336788	0.791882561812
2	850	144.115442888642	1.156339979485
2	853	144.550594440496	1.167454873648
2	860	145.494881971075	0.435151551854
2	865	145.930033522929	0.649103803888
2	868	146.365185074783	0.824272143707
2	873	147.186147405376	0.435151551854
2	878	148.329425436303	0.435151551854
2	885	148.78743315241	0.435151551854
2	888	149.222584704264	0.845436449718
2	893	150.159038688548	0.435151551854
2	898	152.052984947363	0.435151551854
2	903	152.514428511762	0.435151551854
2	908	154.185969970228	0.435151551854
2	915	154.794622233337	0.435151551854
2	920	155.229773785191	0.798891113409
2	923	155.664925337045	0.718883068314
2	928	156.239554048968	0.435151551854
2	933	156.784300492267	0.435151551854
2	940	157.938123151838	0.435151551854
2	945	158.373274703692	0.744184741444
2	948	158.808426255546	0.796627604422
2	953	159.657995842831	0.435151551854
2	958	160.78807620481	0.435151551854
2	965	162.577939737898	0.435151551854
2	968	163.013091289752	0.69095959987
2	973	164.365564067616	0.435151551854
2	978	165.14860982239	0.435151551854
2	987	167.250278087584	0.435151551854
2	990	167.685429639438	0.769123942913
2	993	168.120581191292	1.023214527574
2	998	169.043912221635	0.435151551854
2	1003	171.223542169424	0.435151551854
2	1010	172.245936342984	0.435151551854
2	1013	172.681087894838	0.503305879132
2	1020	173.620438532399	0.435151551854
2	1024	174.260100268025	0.997705441078
2	1029	175.46948600481	0.435151551854
2	1034	176.969324449962	0.435151551854
2	1041	178.288314157873	0.435151551854
2	1044	178.723465709727	0.78546933971
2	1051	179.560769465418	0.435151551854
2	1054	179.995921017272	0.830294179492
2	1059	180.497193030697	0.435151551854
2	1064	181.477310863424	0.435151551854
2	1069	181.984805581771	0.435151551854
2	1078	184.157740621213	0.435151551854
2	1081	184.592892173067	0.825713999713
2	1086	185.028043724921	0.937026956791
2	1089	185.463195276775	0.712610767281
2	1096	188.672073126933	0.435151551854
2	1099	189.107224678787	0.733694212393
2	1104	189.542934617767	0.435151551854
2	1109	192.138317942041	0.435151551854
2	1118	193.701131806599	0.435151551854
2	1125	194.136283358453	0.715299285652
2	1128	194.571434910307	1.129324772877
2	1133	195.006586462161	1.091008611215
2	1136	195.441738014015	1.366107371201
2	1139	195.876889565869	0.935863369735
2	1144	196.681438820993	0.435151551854
2	1153	197.279340147204	0.435151551854
2	1156	197.714491699058	0.764555545168
2	1159	198.149643250912	1.069620237562
2	1164	199.450899589009	0.435151551854
2	1169	201.608530567306	0.435151551854
2	1174	202.964606983701	0.435151551854
2	1179	203.536593852019	0.435151551854
2	1184	204.049724711182	0.435151551854
2	1189	205.477465287705	0.435151551854
2	1196	206.586158723676	0.435151551854
2	1201	207.02131027553	0.61113095209
2	1204	207.456461827384	0.749395531497
2	1213	208.499508881212	0.435151551854
2	1218	208.934660433066	0.592951851339
2	1223	209.36981198492	1.02616237546
2	1226	209.804963536774	1.158918923471
2	1231	210.240115088628	1.220932528857
2	1234	210.675266640482	0.632213966994
2	1239	213.303872130874	0.435151551854
2	1244	214.217723755153	0.435151551854
2	1249	214.726751513809	0.435151551854
2	1254	215.270847784325	0.435151551854
2	1261	218.375964764636	0.435151551854
2	1266	218.81111631649	0.748251537142
2	1269	219.246267868344	0.69320620823
2	1275	220.765910860344	0.435151551854
2	1280	222.8628148106	0.435151551854
2	1285	224.670963742032	0.435151551854
2	1290	225.346297461201	0.435151551854
2	1295	226.431608173099	0.435151551854
2	1302	227.746872987462	0.435151551854
2	1307	228.182024539316	0.832283173867
2	1310	228.61717609117	0.533493166969
2	1315	229.717856943869	0.435151551854
2	1320	231.427538351144	0.435151551854
2	1327	232.17316858074	0.435151551854
2	1332	232.608320132594	0.801125271442
2	1335	233.043471684448	0.656775763296
2	1342	235.091369942229	0.435151551854
2	1345	235.526521494083	0.798505485739
2	1350	238.45570660174	0.435151551854
2	1357	239.153572868915	0.435151551854
2	1360	239.588724420769	0.750435897986
2	1365	240.360344526263	0.435151551854
2	1372	243.231419822193	0.435151551854
2	1375	243.666571374047	0.790396065188
2	1380	245.127216747772	0.435151551854
2	1385	245.70311322844	0.435151551854
2	1392	246.162773797842	0.435151551854
2	1395	246.597925349696	0.501315928155
2	1400	247.903228795423	0.435151551854
2	1405	251.982862005296	0.435151551854
2	1412	252.843823525677	0.435151551854
2	1419	253.278975077531	0.676758498537
2	1424	253.714126629385	0.577067471939
2	1427	254.149278181239	0.874467525707
2	1432	254.584429733093	1.269919215783
2	1435	255.019581284947	0.75635201913
2	1440	255.760469382818	0.435151551854
2	1445	256.215981602926	0.435151551854
2	1450	257.106069625758	0.435151551854
2	1457	258.150870726367	0.435151551854
2	1460	258.586022278221	0.735569264918
2	1465	259.213722422457	0.435151551854
2	1470	260.798096269487	0.435151551854
2	1475	261.992899588159	0.435151551854
2	1482	262.88791179074	0.435151551854
2	1485	263.323063342594	0.586330559432
2	1490	263.819116415192	0.435151551854
2	1495	265.31285188911	0.435151551854
2	1504	267.192790937024	0.435151551854
2	1507	267.627942488878	0.616081166367
2	1510	268.063094040732	1.044698817297
2	1515	269.592636172694	0.435151551854
2	1522	270.143979230622	0.435151551854
2	1530	270.783640966248	0.722015157992
2	1533	271.218792518102	0.851447675284
2	1536	271.653944069956	1.019080208598
2	1543	272.478006934644	0.435151551854
2	1546	272.913158486498	0.81212681357
2	1551	274.769122920773	0.435151551854
2	1556	275.605416072632	0.435151551854
2	1567	276.698386862381	0.435151551854
2	1572	277.133538414235	0.803783904512
2	1575	277.568689966089	0.963727339692
2	1580	278.003841517943	1.322332299338
2	1584	278.438993069797	0.559959129242
2	1589	280.356876007618	0.435151551854
2	1594	281.049542956808	0.435151551854
2	1603	282.402857633233	0.435151551854
2	1606	282.838009185087	0.692330890801
2	1609	283.273160736941	1.060924737121
2	1618	283.743095332492	0.435151551854
2	1623	284.178246884346	0.781086800108
2	1628	284.6133984362	1.167968336401
2	1631	285.048549988054	0.975352384096
2	1638	285.483701539908	0.896735624135
2	1647	285.918853091762	0.550472370413
2	1650	286.354004643616	0.969817299347
2	1653	286.78915619547	1.176528564051
2	1659	287.224307747324	1.367563440297
2	1666	287.659459299178	0.74129440155
2	1669	288.094610851032	0.630133307128
2	1672	288.529762402886	1.013905882901
2	1677	289.528150439835	0.435151551854
2	1682	290.064141853832	0.435151551854
2	1687	290.541463454969	0.435151551854
2	1698	291.827855559659	0.435151551854
2	1701	292.263007111513	0.826205607698
2	1704	292.698158663367	1.192893134158
2	1710	293.220314119608	0.435151551854
2	1715	294.222270650648	0.435151551854
2	1722	294.662523550665	0.435151551854
2	1727	295.097675102519	0.668573383314
2	1732	295.532826654373	0.557036177631
2	1735	295.967978206227	0.809024897973
2	1740	296.428159893301	0.435151551854
2	1745	296.980492974581	0.435151551854
2	1750	297.996260785987	0.435151551854
2	1755	298.531826594645	0.435151551854
2	1766	299.391316789433	0.435151551854
2	1771	299.826468341287	0.819570477274
2	1774	300.261619893141	1.205233021179
2	1778	300.696771444995	0.923830814486
2	1785	301.674740851919	0.435151551854
2	1789	302.314402587545	0.772543366674
2	1794	303.084959240728	0.435151551854
2	1801	305.120008190279	0.435151551854
2	1804	305.555159742133	0.731508733666
2	1809	306.060003528799	0.435151551854
2	1816	306.687062915489	0.435151551854
2	1819	307.122214467343	0.593963177259
2	1826	311.526459122808	0.435151551854
2	1831	311.961610674662	0.734922751758
2	1834	312.396762226516	0.805837198064
2	1839	313.333152494628	0.435151551854
2	1844	313.81059711991	0.435151551854
2	1851	315.886661401632	0.435151551854
2	1858	316.321812953486	0.548904640365
2	1863	316.75696450534	0.746540835085
2	1870	317.192116057194	0.985430895068
2	1875	317.627267609048	0.908781622172
2	1878	318.062419160902	1.256137835871
2	1882	318.497570712756	1.008816359422
2	1887	319.037653880139	0.435151551854
2	1892	321.567843896691	0.435151551854
2	1897	322.411044748711	0.435151551854
2	1904	323.605192087447	0.435151551854
2	1907	324.040343639301	0.673544834984
2	1912	324.929565424562	0.435151551854
2	1917	325.98670104738	0.435151551854
2	1924	327.633370623433	0.435151551854
2	1927	328.068522175287	0.539787700966
2	1934	329.925227522848	0.435151551854
2	1937	330.360379074702	0.848425572319
2	1944	331.163152745058	0.435151551854
2	1947	331.598304296912	0.500939400428
2	1960	333.583722608407	0.435151551854
2	1963	334.018874160261	0.811905593285
2	1966	334.454025712115	1.03547526885
2	1972	334.889177263969	1.3665544721
2	1977	335.324328815823	0.660896654317
2	1982	335.759480367677	0.867613674933
2	1985	336.194631919531	0.653731644428
2	1990	338.532946824447	0.435151551854
2	1995	341.030708130143	0.435151551854
2	2002	341.979037632659	0.435151551854
2	2007	342.414189184513	0.522735954241
2	2010	342.849340736367	0.513148133362
2	2015	345.770849123585	0.435151551854
2	2020	346.687995341304	0.435151551854
2	2027	347.833762242476	0.435151551854
2	2032	348.26891379433	0.614106813068
2	2035	348.704065346184	0.621562790873
2	2040	350.02178007979	0.435151551854
2	2048	351.375916055758	0.435151551854
2	2051	351.811067607612	0.772116205615
2	2056	353.230726618073	0.435151551854
2	2063	353.841169782184	0.435151551854
2	2068	354.276321334038	0.861835188139
2	2073	354.711472885892	0.601156703661
2	2076	355.146624437746	0.512479768525
2	2081	355.77890229498	0.435151551854
2	2086	356.462482800767	0.435151551854
2	2091	360.817959940271	0.435151551854
2	2098	361.480695189578	0.435151551854
2	2101	361.915846741432	0.835794526673
2	2106	363.371016282852	0.435151551854
2	2111	364.8373710923	0.435151551854
2	2120	365.687211418008	0.435151551854
2	2123	366.122362969862	0.829599466962
2	2126	366.557514521716	1.187913160634
2	2131	367.614109852362	0.435151551854
2	2136	370.200967855404	0.435151551854
2	2143	371.481009792823	0.435151551854
2	2148	371.916161344677	0.69636998067
2	2153	372.351312896531	0.636019528592
2	2156	372.786464448385	0.48872435206
2	2161	373.336388107895	0.435151551854
2	2168	376.436352283065	0.435151551854
2	2171	376.871503834919	0.776491838053
2	2176	378.29000106869	0.435151551854
2	2181	378.74159551429	0.435151551854
2	2186	379.867699535227	0.435151551854
2	2193	380.625312845568	0.435151551854
2	2198	381.060464397422	0.869697052227
2	2201	381.495615949276	0.789918696984
2	2206	382.635430597961	0.435151551854
2	2211	383.358046218526	0.435151551854
2	2218	384.929240430308	0.435151551854
2	2223	385.364391982162	0.660646890802
2	2228	385.799543534016	0.597032947302
2	2231	386.23469508587	0.641794084407
2	2236	387.136040367866	0.435151551854
2	2243	387.788431768905	0.435151551854
2	2252	388.223583320759	0.799793987866
2	2255	388.658734872613	0.738540589228
2	2260	389.093886424467	0.96232293248
2	2267	389.529037976321	1.350829599723
2	2270	389.964189528175	1.052585724915
2	2273	390.399341080029	1.140707165029
2	2279	391.566964120082	0.435151551854
2	2286	396.428553784865	0.435151551854
2	2289	396.863705336719	0.700767964091
2	2294	397.440622301318	0.435151551854
2	2300	398.303964111299	0.435151551854
2	2311	399.619886306843	0.435151551854
2	2316	400.055037858697	0.673377308459
2	2319	400.490189410551	1.010601697454
2	2322	400.925340962405	1.370077466952
2	2328	401.571130871798	0.435151551854
2	2333	402.593247970041	0.435151551854
2	2338	404.026356039726	0.435151551854
2	2343	404.584676131599	0.435151551854
2	2348	405.16021688388	0.435151551854
2	2353	406.72778489974	0.435151551854
2	2360	409.83370561816	0.435151551854
2	2367	410.268857170014	0.442213401027
2	2372	410.704008721868	0.645088306645
2	2375	411.139160273722	1.044930601259
2	2382	411.574311825576	1.060858414511
2	2387	412.00946337743	0.791865139718
2	2392	412.444614929284	0.965022817162
2	2397	412.879766481138	1.253416868911
2	2400	413.314918032992	0.882754177426
2	2405	413.750069584846	1.016642020543
2	2408	414.1852211367	0.742281712903
2	2417	416.055292388591	0.435151551854
2	2420	416.490443940445	0.712138438241
2	2423	416.925595492299	1.092302423744
2	2432	417.514560724844	0.435151551854
2	2435	417.949712276698	0.702676634389
2	2438	418.384863828552	0.95432522463
2	2443	419.492893821829	0.435151551854
2	2450	421.069585438182	0.435151551854
2	2453	421.504736990036	0.461373715593
2	2460	422.812951595645	0.435151551854
2	2463	423.248103147499	0.619200248023
2	2468	425.59186760057	0.435151551854
2	2473	429.040034838324	0.435151551854
2	2478	430.745570943569	0.435151551854
2	2485	431.722778008169	0.435151551854
2	2492	432.157929560023	0.660715267071
2	2495	432.593081111877	0.828867343864
2	2498	433.028232663731	1.144384566537
2	2503	433.701017540763	0.435151551854
2	2508	434.277778670508	0.435151551854
2	2517	435.962653013165	0.435151551854
2	2520	436.397804565019	0.703028203669
2	2523	436.832956116873	0.940143616707
2	2528	437.836068725412	0.435151551854
2	2533	438.388506960398	0.435151551854
2	2540	440.322793972381	0.435151551854
2	2543	440.757945524235	0.824888055654
2	2550	441.618873373769	0.435151551854
2	2556	442.258535109395	0.655408096855
2	2559	442.693686661249	0.435921766071
2	2564	443.223130791063	0.435151551854
2	2571	444.024208398461	0.435151551854
2	2574	444.459359950315	0.660745604573
2	2579	445.475125213251	0.435151551854
2	2584	447.12306480007	0.435151551854
2	2589	448.834436279823	0.435151551854
2	2596	449.489349993856	0.435151551854
2	2599	449.92450154571	0.528343330213
2	2604	450.881757404846	0.435151551854
2	2609	451.997305421787	0.435151551854
2	2616	452.584100786739	0.435151551854
2	2621	453.019252338593	0.731430708428
2	2628	453.454403890447	0.568616040019
2	2631	453.889555442301	0.829425024303
2	2636	454.324706994155	0.878528405645
2	2639	454.759858546009	0.827247859048
2	2644	455.552322455337	0.435151551854
2	2649	457.477624876619	0.435151551854
2	2654	457.921194401742	0.435151551854
2	2659	458.810346578469	0.435151551854
2	2666	459.856366850798	0.435151551854
2	2669	460.291518402652	0.809135069467
2	2674	461.041070881741	0.435151551854
2	2679	462.753425437816	0.435151551854
2	2684	463.742539248888	0.435151551854
2	2689	465.578223276528	0.435151551854
2	2694	466.344930460858	0.435151551854
2	2699	468.015539879996	0.435151551854
2	2704	468.508890635751	0.435151551854
2	2709	469.582296086629	0.435151551854
2	2714	470.722320153002	0.435151551854
2	2725	472.610939421449	0.435151551854
2	2730	473.046090973303	0.693685663461
2	2733	473.481242525157	0.908276793229
2	2736	473.916394077011	1.310769426677
2	2742	474.688413826066	0.435151551854
2	2747	475.169701707548	0.435151551854
2	2754	475.99132330246	0.435151551854
2	2761	476.426474854314	0.776985760229
2	2764	476.861626406168	0.770234849939
2	2769	477.296777958022	0.964281252795
2	2774	477.731929509876	0.800170399719
2	2777	478.16708106173	0.641544152975
2	2784	479.34069166205	0.435151551854
2	2787	479.775843213904	0.690033823996
2	2794	480.420032051673	0.435151551854
2	2799	480.855183603527	0.70311978771
2	2804	481.290335155381	0.507206302625
2	2810	481.929996891007	0.825615083352
2	2813	482.365148442861	1.022507961607
2	2822	483.491647097212	0.435151551854
2	2827	483.926798649066	0.750959555432
2	2830	484.36195020092	1.168095711445
2	2833	484.797101752774	1.03366725563
2	2838	485.526712377439	0.435151551854
2	2843	486.549631627822	0.435151551854
2	2850	488.663801059993	0.435151551854
2	2859	489.098952611847	0.687956377081
2	2864	489.534104163701	0.799423958478
2	2867	489.969255715555	1.02037806646
2	2871	490.404407267409	0.874022516804
2	2878	492.681263323147	0.435151551854
2	2881	493.116414875001	0.817318761956
2	2886	494.88680731164	0.435151551854
2	2891	495.735094017156	0.435151551854
2	2896	496.37228346011	0.435151551854
2	2901	496.821409434916	0.435151551854
2	2906	499.686090734584	0.435151551854
2	2911	501.168369263194	0.435151551854
2	2916	502.060969047214	0.435151551854
2	2923	503.735395010784	0.435151551854
2	2928	504.170546562638	0.832798750789
2	2933	504.605698114492	0.600539846892
2	2936	505.040849666346	0.521576438926
2	2941	506.554967403192	0.435151551854
2	2946	510.786042831302	0.435151551854
2	2951	512.63322570765	0.435151551854
2	2956	513.960314781555	0.435151551854
2	2963	514.687325512878	0.435151551854
2	2966	515.122477064732	0.720166111682
2	2973	517.096872195373	0.435151551854
2	2976	517.532023747227	0.590873757571
2	2981	518.209765183546	0.435151551854
2	2988	519.048242328456	0.435151551854
2	2991	519.48339388031	0.787826501762
2	2996	520.00401127781	0.435151551854
2	3001	521.137160416795	0.435151551854
2	3010	522.601547389629	0.435151551854
2	3013	523.036698941483	0.818886142259
2	3016	523.471850493337	0.898954976804
2	3021	524.56735657678	0.435151551854
2	3028	525.239925895209	0.435151551854
2	3031	525.675077447063	0.482132241233
2	3036	526.151886899268	0.435151551854
2	3041	526.729209098317	0.435151551854
2	3048	529.662964801528	0.435151551854
2	3051	530.098116353382	0.74726708387
2	3056	531.58255443346	0.435151551854
2	3062	532.811865856384	0.435151551854
2	3067	534.109404391856	0.435151551854
2	3074	535.64862386406	0.435151551854
2	3079	536.083775415914	0.44532934479
2	3086	536.518926967768	0.863061193569
2	3089	536.954078519622	0.734818560003
2	3094	537.389230071476	0.906468344754
2	3099	537.82438162333	0.671969702596
2	3102	538.259533175184	0.456593269834
2	3107	538.978242927898	0.435151551854
2	3112	539.547679350294	0.435151551854
2	3117	540.462157407203	0.435151551854
2	3124	541.649312268087	0.435151551854
2	3129	542.084463819941	0.670055392326
2	3132	542.519615371795	0.539212978577
2	3137	543.401485699465	0.435151551854
2	3142	545.822866419622	0.435151551854
2	3147	546.668561593413	0.435151551854
2	3152	549.420202392036	0.435151551854
2	3159	549.896028961176	0.435151551854
2	3164	550.33118051303	0.730342342307
2	3167	550.766332064884	0.621716038816
2	3174	551.761997330628	0.435151551854
2	3179	552.197148882482	0.651150999264
2	3182	552.632300434336	0.829549751994
2	3187	554.049023253986	0.435151551854
2	3196	554.496344646895	0.435151551854
2	3203	554.931496198749	0.552179396813
2	3208	555.366647750603	0.953870304334
2	3211	555.801799302457	1.094643437195
2	3215	556.236950854311	1.038718496325
2	3222	556.933585847363	0.435151551854
2	3225	557.368737399217	0.615426611344
2	3230	558.973268461223	0.435151551854
2	3237	560.213840396279	0.435151551854
2	3240	560.648991948133	0.539274449274
2	3247	562.02969652698	0.435151551854
2	3250	562.464848078834	0.771709644442
2	3255	563.022004784511	0.435151551854
2	3262	564.228587032099	0.435151551854
2	3267	564.663738583953	0.608462725573
2	3270	565.098890135807	0.797957952726
2	3275	565.722743858798	0.435151551854
2	3280	566.93419900392	0.435151551854
2	3285	567.880482200715	0.435151551854
2	3296	569.840748938758	0.435151551854
2	3299	570.275900490612	0.69387042055
2	3304	570.711052042466	0.98021935907
2	3307	571.14620359432	1.326507323056
2	3310	571.581355146174	1.262062056725
2	3316	572.476586513642	0.435151551854
2	3325	575.690888492574	0.435151551854
[...]
8	1924	327.633370623433	0
8	1927	328.068522175287	0
8	1934	329.925227522848	0
8	1937	330.360379074702	0
8	1944	331.163152745058	0
8	1947	331.598304296912	0
8	1960	333.583722608407	0
8	1963	334.018874160261	0
8	1966	334.454025712115	0
8	1972	334.889177263969	0
8	1977	335.324328815823	0
8	1982	335.759480367677	0
8	1985	336.194631919531	0
8	1990	338.532946824447	0
8	1995	341.030708130143	0
8	2002	341.979037632659	0
8	2007	342.414189184513	0
8	2010	342.849340736367	0
8	2015	345.770849123585	0
8	2020	346.687995341304	0
8	2027	347.833762242476	0
8	2032	348.26891379433	0
8	2035	348.704065346184	0
8	2040	350.02178007979	0
8	2048	351.375916055758	0
8	2051	351.811067607612	0
8	2056	353.230726618073	0
8	2063	353.841169782184	0
8	2068	354.276321334038	0
8	2073	354.711472885892	0
8	2076	355.146624437746	0
8	2081	355.77890229498	0
8	2086	356.462482800767	0
8	2091	360.817959940271	0
8	2098	361.480695189578	0
8	2101	361.915846741432	0
8	2106	363.371016282852	0
8	2111	364.8373710923	0
8	2120	365.687211418008	0
8	2123	366.122362969862	0
8	2126	366.557514521716	0
8	2131	367.614109852362	0
8	2136	370.200967855404	0
8	2143	371.481009792823	0
8	2148	371.916161344677	0
8	2153	372.351312896531	0
8	2156	372.786464448385	0
8	2161	373.336388107895	0
8	2168	376.436352283065	0
8	2171	376.871503834919	0
8	2176	378.29000106869	0
8	2181	378.74159551429	0
8	2186	379.867699535227	0
8	2193	380.625312845568	0
8	2198	381.060464397422	0
8	2201	381.495615949276	0
8	2206	382.635430597961	0
8	2211	383.358046218526	0
8	2218	384.929240430308	0
8	2223	385.364391982162	0
8	2228	385.799543534016	0
8	2231	386.23469508587	0
8	2236	387.136040367866	0
8	2243	387.788431768905	0
8	2252	388.223583320759	0
8	2255	388.658734872613	0
8	2260	389.093886424467	0
8	2267	389.529037976321	0
8	2270	389.964189528175	0
8	2273	390.399341080029	0
8	2279	391.566964120082	0
8	2286	396.428553784865	0
8	2289	396.863705336719	0
8	2294	397.440622301318	0
8	2300	398.303964111299	0
8	2311	399.619886306843	0
8	2316	400.055037858697	0
8	2319	400.490189410551	0
8	2322	400.925340962405	0
8	2328	401.571130871798	0
8	2333	402.593247970041	0
8	2338	404.026356039726	0
8	2343	404.584676131599	0
8	2348	405.16021688388	0
8	2353	406.72778489974	0
8	2360	409.83370561816	0
8	2367	410.268857170014	0
8	2372	410.704008721868	0
8	2375	411.139160273722	0
8	2382	411.574311825576	0
8	2387	412.00946337743	0
8	2392	412.444614929284	0
8	2397	412.879766481138	0
8	2400	413.314918032992	0
8	2405	413.750069584846	0
8	2408	414.1852211367	0
8	2417	416.055292388591	0
8	2420	416.490443940445	0
8	2423	416.925595492299	0
8	2432	417.514560724844	0
8	2435	417.949712276698	0
8	2438	418.384863828552	0
8	2443	419.492893821829	0
8	2450	421.069585438182	0
8	2453	421.504736990036	0
8	2460	422.812951595645	0
8	2463	423.248103147499	0
8	2468	425.59186760057	0
8	2473	429.040034838324	0
8	2478	430.745570943569	0
8	2485	431.722778008169	0
8	2492	432.157929560023	0
8	2495	432.593081111877	0
8	2498	433.028232663731	0
8	2503	433.701017540763	0
8	2508	434.277778670508	0
8	2517	435.962653013165	0
8	2520	436.397804565019	0
8	2523	436.832956116873	0
8	2528	437.836068725412	0
8	2533	438.388506960398	0
8	2540	440.322793972381	0
8	2543	440.757945524235	0
8	2550	441.618873373769	0
8	2556	442.258535109395	0
8	2559	442.693686661249	0
8	2564	443.223130791063	0
8	2571	444.024208398461	0
8	2574	444.459359950315	0
8	2579	445.475125213251	0
8	2584	447.12306480007	0
8	2589	448.834436279823	0
8	2596	449.489349993856	0
8	2599	449.92450154571	0
8	2604	450.881757404846	0
8	2609	451.997305421787	0
8	2616	452.584100786739	0
8	2621	453.019252338593	0
8	2628	453.454403890447	0
8	2631	453.889555442301	0
8	2636	454.324706994155	0
8	2639	454.759858546009	0
8	2644	455.552322455337	0
8	2649	457.477624876619	0
8	2654	457.921194401742	0
8	2659	458.810346578469	0
8	2666	459.856366850798	0
8	2669	460.291518402652	0
8	2674	461.041070881741	0
8	2679	462.753425437816	0
8	2684	463.742539248888	0
8	2689	465.578223276528	0
8	2694	466.344930460858	0
8	2699	468.015539879996	0
8	2704	468.508890635751	0
8	2709	469.582296086629	0
8	2714	470.722320153002	0
8	2725	472.610939421449	0
8	2730	473.046090973303	0
8	2733	473.481242525157	0
8	2736	473.916394077011	0
8	2742	474.688413826066	0
8	2747	475.169701707548	0
8	2754	475.99132330246	0
8	2761	476.426474854314	0
8	2764	476.861626406168	0
8	2769	477.296777958022	0
8	2774	477.731929509876	0
8	2777	478.16708106173	0
8	2784	479.34069166205	0
8	2787	479.775843213904	0
8	2794	480.420032051673	0
8	2799	480.855183603527	0
8	2804	481.290335155381	0
8	2810	481.929996891007	0
8	2813	482.365148442861	0
8	2822	483.491647097212	0
8	2827	483.926798649066	0
8	2830	484.36195020092	0
8	2833	484.797101752774	0
8	2838	485.526712377439	0
8	2843	486.549631627822	0
8	2850	488.663801059993	0
8	2859	489.098952611847	0
8	2864	489.534104163701	0
8	2867	489.969255715555	0
8	2871	490.404407267409	0
8	2878	492.681263323147	0
8	2881	493.116414875001	0
8	2886	494.88680731164	0
8	2891	495.735094017156	0
8	2896	496.37228346011	0
8	2901	496.821409434916	0
8	2906	499.686090734584	0
8	2911	501.168369263194	0
8	2916	502.060969047214	0
8	2923	503.735395010784	0
8	2928	504.170546562638	0
8	2933	504.605698114492	0
8	2936	505.040849666346	0
8	2941	506.554967403192	0
8	2946	510.786042831302	0
8	2951	512.63322570765	0
8	2956	513.960314781555	0
8	2963	514.687325512878	0
8	2966	515.122477064732	0
8	2973	517.096872195373	0
8	2976	517.532023747227	0
8	2981	518.209765183546	0
8	2988	519.048242328456	0
8	2991	519.48339388031	0
8	2996	520.00401127781	0
8	3001	521.137160416795	0
8	3010	522.601547389629	0
8	3013	523.036698941483	0
8	3016	523.471850493337	0
8	3021	524.56735657678	0
8	3028	525.239925895209	0
8	3031	525.675077447063	0
8	3036	526.151886899268	0
8	3041	526.729209098317	0
8	3048	529.662964801528	0
8	3051	530.098116353382	0
8	3056	531.58255443346	0
8	3062	532.811865856384	0
8	3067	534.109404391856	0
8	3074	535.64862386406	0
8	3079	536.083775415914	0
8	3086	536.518926967768	0
8	3089	536.954078519622	0
8	3094	537.389230071476	0
8	3099	537.82438162333	0
8	3102	538.259533175184	0
8	3107	538.978242927898	0
8	3112	539.547679350294	0
8	3117	540.462157407203	0
8	3124	541.649312268087	0
8	3129	542.084463819941	0
8	3132	542.519615371795	0
8	3137	543.401485699465	0
8	3142	545.822866419622	0
8	3147	546.668561593413	0
8	3152	549.420202392036	0
8	3159	549.896028961176	0
8	3164	550.33118051303	0
8	3167	550.766332064884	0
8	3174	551.761997330628	0
8	3179	552.197148882482	0
8	3182	552.632300434336	0
8	3187	554.049023253986	0
8	3196	554.496344646895	0
8	3203	554.931496198749	0
8	3208	555.366647750603	0
8	3211	555.801799302457	0
8	3215	556.236950854311	0
8	3222	556.933585847363	0
8	3225	557.368737399217	0
8	3230	558.973268461223	0
8	3237	560.213840396279	0
8	3240	560.648991948133	0
8	3247	562.02969652698	0
8	3250	562.464848078834	0
8	3255	563.022004784511	0
8	3262	564.228587032099	0
8	3267	564.663738583953	0
8	3270	565.098890135807	0
8	3275	565.722743858798	0
8	3280	566.93419900392	0
8	3285	567.880482200715	0
8	3296	569.840748938758	0
8	3299	570.275900490612	0
8	3304	570.711052042466	0
8	3307	571.14620359432	0
8	3310	571.581355146174	0
8	3316	572.476586513642	0
8	3325	575.690888492574	0
8	3328	576.126040044428	0
8	3331	576.561191596282	0
8	3336	577.075263656216	0
8	3341	580.656765520814	0
8	3346	582.73263866264	0
8	3351	584.990827426661	0
8	3356	585.605195852368	0
8	3365	586.317483910586	0
8	3368	586.75263546244	0
8	3373	587.187787014294	0
8	3376	587.622938566148	0
8	3381	589.479040491148	0
8	3386	589.934396948027	0
8	3395	590.669760129016	0
8	3398	591.10491168087	0
8	3403	591.540063232724	0
8	3406	591.975214784578	0
8	3411	592.538854550985	0
8	3416	594.013522746636	0
8	3423	595.61768991338	0
8	3426	596.052841465234	0
8	3431	596.598630395818	0
8	3438	598.279169886386	0
8	3441	598.71432143824	0
8	3446	599.242470378944	0
8	3451	601.091055349917	0
8	3456	601.938386118581	0
8	3461	604.070313480129	0
8	3466	604.634637259563	0
8	3471	605.260431139002	0
8	3478	607.074300651143	0
8	3483	607.509452202997	0
8	3488	607.944603754851	0
8	3491	608.379755306705	0
8	3496	609.964726839737	0
8	3501	610.784561773554	0
8	3508	612.362051032432	0
8	3511	612.797202584286	0
8	3518	613.520922053705	0
8	3521	613.956073605559	0
8	3528	615.203890381797	0
8	3535	615.639041933651	0
8	3538	616.074193485505	0
8	3541	616.509345037359	0
8	3546	617.255394947931	0
8	3553	617.781478111582	0
8	3556	618.216629663436	0
8	3561	618.819870762239	0
8	3569	619.62516939331	0
8	3574	620.060320945164	0
8	3577	620.495472497018	0
8	3582	621.59602235719	0
8	3587	622.50082954204	0
8	3592	625.059994795687	0
8	3597	625.659338005881	0
8	3602	626.141539005609	0
8	3607	626.696020037684	0
8	3612	628.258119673934	0
8	3617	628.768748791067	0
8	3622	629.84794181774	0
8	3631	630.435293538506	0
8	3638	630.87044509036	0
8	3643	631.305596642214	0
8	3646	631.740748194068	0
8	3652	632.175899745922	0
8	3659	632.611051297776	0
8	3664	633.04620284963	0
8	3667	633.481354401484	0
8	3670	633.916505953338	0
8	3681	634.866317968477	0
8	3686	635.301469520331	0
8	3691	635.736621072185	0
8	3695	636.171772624039	0
8	3698	636.606924175893	0
8	3703	637.780144986983	0
8	3708	638.321452652138	0
8	3715	639.164457633731	0
8	3722	639.599609185585	0
8	3727	640.034760737439	0
8	3732	640.469912289293	0
8	3735	640.905063841147	0
8	3738	641.340215393001	0
8	3743	642.459656295043	0
8	3748	643.990932115573	0
8	3753	644.656280712335	0
8	3758	646.331166043955	0
8	3763	647.359174236745	0
8	3768	648.998129316583	0
8	3773	649.811899745363	0
8	3778	650.426200581217	0
8	3785	653.247364745413	0
8	3788	653.682516297267	0
8	3793	654.572798966106	0
8	3800	655.128637014079	0
8	3805	655.563788565933	0
8	3808	655.998940117787	0
8	3815	656.506359774778	0
8	3820	656.941511326632	0
8	3824	657.581173062258	0
8	3829	658.651819441526	0
8	3836	659.242935495145	0
8	3839	659.678087046999	0
8	3844	661.185004122776	0
8	3849	662.677343534263	0
8	3856	668.838337091979	0
8	3859	669.273488643833	0
8	3864	669.852637666987	0
8	3869	671.245426965713	0
8	3876	673.631409847918	0
8	3879	674.066561399772	0
8	3884	675.087625451793	0
8	3889	678.005788101977	0
8	3896	678.612943284057	0
8	3903	679.048094835911	0
8	3908	679.483246387765	0
8	3911	679.918397939619	0
8	3914	680.353549491473	0
8	3921	681.702057354364	0
8	3924	682.137208906218	0
8	3929	683.048965137174	0
8	3934	684.183379437429	0
8	3939	684.62050776176	0
8	3946	685.232868407023	0
8	3949	685.668019958877	0
8	3956	686.879209193282	0
8	3961	687.314360745136	0
8	3966	687.74951229699	0
8	3971	688.184663848844	0
8	3976	688.619815400698	0
8	3979	689.054966952552	0
8	3988	689.889885907568	0
8	3993	690.325037459422	0
8	3996	690.760189011276	0
8	3999	691.19534056313	0
8	4004	692.515765708887	0
8	4013	694.121850254298	0
8	4016	694.557001806152	0
8	4019	694.992153358006	0
8	4026	696.389545985342	0
8	4029	696.824697537196	0
8	4034	697.958245476451	0
8	4041	698.765739524599	0
8	4044	699.200891076453	0
8	4049	699.908221707124	0
8	4054	700.345950167522	0
8	4061	701.491262166256	0
8	4064	701.92641371811	0
8	4069	702.772898140538	0
8	4075	703.646347997715	0
8	4082	704.529261344567	0
8	4085	704.964412896421	0
8	4090	706.110322478719	0
8	4101	707.950686847954	0
8	4104	708.385838399808	0
8	4111	708.820989951662	0
8	4114	709.256141503516	0
8	4117	709.69129305537	0
8	4124	710.126444607224	0
8	4127	710.561596159078	0
8	4134	710.996747710932	0
8	4139	711.431899262786	0
8	4148	711.86705081464	0
8	4153	712.302202366494	0
8	4156	712.737353918348	0
8	4160	713.172505470202	0
8	4163	713.607657022056	0
8	4168	714.524853681472	0
8	4173	715.041354127724	0
8	4180	715.54586109016	0
8	4183	715.981012642014	0
8	4188	717.051292009169	0
8	4195	718.378323305223	0
8	4198	718.813474857077	0
8	4205	721.519356586576	0
8	4208	721.95450813843	0
8	4213	722.402413566514	0
8	4220	725.174183254788	0
8	4223	725.609334806642	0
8	4230	726.306838594415	0
8	4233	726.741990146269	0
8	4240	727.793182198463	0
8	4247	728.228333750317	0
8	4252	728.663485302171	0
8	4259	729.098636854025	0
8	4264	729.533788405879	0
8	4271	729.968939957733	0
8	4275	730.404091509587	0
8	4280	730.839243061441	0
8	4287	731.274394613295	0
8	4290	731.709546165149	0
8	4293	732.144697717003	0
8	4296	732.579849268857	0
8	4301	733.526607506092	0
8	4306	734.004938221378	0
8	4311	735.175064625952	0
8	4316	736.591674559345	0
8	4323	737.285004321618	0
8	4326	737.720155873472	0
8	4334	740.584252399165	0
8	4341	741.019403951019	0
8	4344	741.454555502873	0
8	4347	741.889707054727	0
8	4354	744.077892320088	0
8	4357	744.513043871942	0
8	4362	747.125668200912	0
8	4367	747.742335657172	0
8	4374	748.37277603963	0
8	4377	748.807927591484	0
8	4386	749.493743868424	0
8	4391	749.928895420278	0
8	4394	750.364046972132	0
8	4401	750.799198523986	0
8	4406	751.23435007584	0
8	4409	751.669501627694	0
8	4414	752.104653179548	0
8	4417	752.539804731402	0
8	4424	753.484535086358	0
8	4431	753.919686638212	0
8	4438	754.354838190066	0
8	4443	754.78998974192	0
8	4446	755.225141293774	0
8	4449	755.660292845628	0
8	4459	756.200224299338	0
8	4464	756.635375851192	0
8	4467	757.070527403046	0
8	4472	757.5056789549	0
8	4475	757.940830506754	0
8	4480	759.723344403058	0
8	4489	761.035710733928	0
8	4494	761.470862285782	0
8	4499	761.906013837636	0
8	4504	762.34116538949	0
8	4507	762.776316941344	0
8	4510	763.211468493198	0
8	4517	764.105479127024	0
8	4520	764.540630678878	0
8	4527	765.229578469177	0
8	4530	765.664730021031	0
8	4535	768.36544114448	0
8	4544	768.885113438064	0
8	4551	769.320264989918	0
8	4558	769.755416541772	0
8	4563	770.190568093626	0
8	4568	770.62571964548	0
8	4574	771.060871197334	0
8	4582	771.496022749188	0
8	4585	771.931174301042	0
8	4592	772.366325852896	0
8	4599	773.005987588522	0
8	4602	773.441139140376	0
8	4607	773.87629069223	0
8	4612	774.311442244084	0
8	4615	774.746593795938	0
8	4620	777.10223529031	0
8	4629	778.461259635932	0
8	4636	778.896411187786	0
8	4641	779.33156273964	0
8	4644	779.766714291494	0
8	4648	780.201865843348	0
8	4653	782.442120712954	0
8	4662	783.657644396446	0
8	4665	784.0927959483	0
8	4668	784.527947500154	0
8	4675	784.971743403177	0
8	4678	785.406894955031	0
8	4683	787.577544424213	0
8	4688	789.503296265967	0
8	4693	793.665375144791	0
8	4698	795.43945114246	0
8	4703	795.981054500902	0
8	4708	796.82618491987	0
8	4713	799.953739574161	0
8	4720	801.377268562307	0
8	4725	801.812420114161	0
8	4730	802.247571666015	0
8	4733	802.682723217869	0
8	4740	803.886944535011	0
8	4745	804.322096086865	0
8	4750	804.757247638719	0
8	4753	805.192399190573	0
8	4758	805.986206456548	0
8	4763	806.483340455691	0
8	4770	806.982599905723	0
8	4773	807.417751457577	0
8	4778	807.999440211954	0
8	4783	808.486625441	0
8	4788	810.857545532986	0
8	4793	813.134392039386	0
8	4800	813.755553848445	0
8	4803	814.190705400299	0
8	4808	815.359002911372	0
8	4815	816.167389424943	0
8	4818	816.602540976797	0
8	4823	817.526310388452	0
8	4828	818.030657559056	0
8	4833	819.248323409445	0
8	4838	819.806780325472	0
8	4847	822.580622356273	0
8	4853	823.220284091899	0
8	4856	823.655435643753	0
8	4861	824.090587195607	0
8	4864	824.525738747461	0
8	4869	825.939130815333	0
8	4876	826.401048539042	0
8	4881	826.836200090896	0
8	4886	827.27135164275	0
8	4891	827.706503194604	0
8	4900	828.141654746458	0
8	4903	828.576806298312	0
8	4906	829.011957850166	0
8	4912	830.031895798595	0
8	4919	832.852253694046	0
8	4924	833.2874052459	0
8	4927	833.722556797754	0
8	4932	835.108846172084	0
8	4937	835.885962877375	0
8	4944	836.737556169049	0
8	4953	837.172707720903	0
8	4956	837.607859272757	0
8	4959	838.043010824611	0
8	4965	838.595738525836	0
8	4970	840.086400961862	0
8	4975	841.569546813784	0
8	4980	842.473154796604	0
8	4987	843.18127090833	0
8	4990	843.616422460184	0
8	4995	844.502472312031	0
8	5002	845.000861682541	0
8	5007	845.436013234395	0
8	5012	845.871164786249	0
8	5015	846.306316338103	0
8	5020	848.127806049163	0
8	5025	849.287460977925	0
8	5030	850.430074328077	0
8	5037	851.445016788535	0
8	5040	851.880168340389	0
8	5047	852.616896843597	0
8	5054	853.052048395451	0
8	5059	853.487199947305	0
8	5062	853.922351499159	0
8	5065	854.357503051013	0
8	5070	854.869242191716	0
8	5077	855.340578411782	0
8	5080	855.775729963636	0
8	5087	856.687843934714	0
8	5090	857.122995486568	0
8	5099	858.2981822794	0
8	5106	858.733333831254	0
8	5112	859.37299556688	0
8	5115	859.808147118734	0
8	5119	860.243298670588	0
8	5124	865.669640739909	0
8	5131	866.912248901445	0
8	5134	867.347400453299	0
8	5139	868.22346511905	0
8	5144	869.747453352311	0
8	5149	871.338707830333	0
8	5154	871.835319934357	0
8	5159	872.935022445334	0
8	5164	873.643302417292	0
8	5169	874.528727499364	0
8	5174	876.508227869759	0
8	5181	877.522112563122	0
8	5188	877.957264114976	0
8	5191	878.39241566683	0
8	5194	878.827567218684	0
8	5199	879.425367334834	0
8	5206	881.217953041869	0
8	5209	881.653104593723	0
8	5216	883.026574688028	0
8	5219	883.461726239882	0
8	5224	884.909139633904	0
8	5229	886.362586726523	0
8	5236	887.39244618534	0
8	5239	887.827597737194	0
8	5244	889.018168277231	0
8	5251	889.53412528696	0
8	5256	889.969276838814	0
8	5261	890.404428390668	0
8	5264	890.839579942522	0
8	5269	892.520873555281	0
8	5274	893.780295813132	0
8	5279	897.304657631534	0
8	5286	900.065295941984	0
8	5289	900.500447493838	0
8	5294	902.124690589347	0
8	5301	902.910201754357	0
8	5306	903.345353306211	0
8	5309	903.780504858065	0
8	5314	905.674479497666	0
8	5319	906.988797158387	0
8	5328	908.440701592842	0
8	5335	908.875853144696	0
8	5338	909.31100469655	0
8	5341	909.746156248404	0
8	5349	911.826493251959	0
8	5352	912.261644803813	0
8	5359	912.910034328761	0
8	5363	913.549696064387	0
8	5370	914.415141769957	0
8	5375	914.850293321811	0
8	5378	915.285444873665	0
8	5383	915.796852190274	0
8	5390	916.327158018831	0
8	5393	916.762309570685	0
8	5398	917.2139193641	0
8	5403	917.967765488171	0
8	5410	920.952622172866	0
8	5413	921.38777372472	0
8	5418	922.467447341938	0
8	5427	924.460968782378	0
8	5430	924.896120334232	0
8	5433	925.331271886086	0
8	5438	926.1182902826	0
8	5445	930.281789261504	0
8	5448	930.716940813358	0
8	5453	932.601046087874	0
8	5458	933.442654817669	0
8	5463	934.704915176237	0
8	5468	935.327639205341	0
8	5473	936.627883511177	0
8	5478	937.270616848766	0
8	5485	939.129754772826	0
8	5490	939.56490632468	0
8	5493	940.000057876534	0
8	5498	941.06734442939	0
8	5505	942.029628177799	0
8	5508	942.464779729653	0
8	5513	943.089469336715	0
8	5520	943.719438608634	0
8	5523	944.154590160488	0
8	5528	944.64857629366	0
8	5535	945.625078317241	0
8	5538	946.060229869095	0
8	5543	946.946766668596	0
8	5548	947.387988755132	0
8	5553	948.524831025753	0
8	5560	950.242163580654	0
8	5563	950.677315132508	0
8	5568	953.901289564804	0
8	5577	955.331305531925	0
8	5580	955.766457083779	0
8	5583	956.201608635633	0
8	5590	957.626606600363	0
8	5595	958.061758152217	0
8	5602	958.496909704071	0
8	5605	958.932061255925	0
8	5608	959.367212807779	0
8	5616	960.710268557328	0
8	5619	961.145420109182	0
8	5626	962.512017430491	0
8	5631	962.947168982345	0
8	5638	963.382320534199	0
8	5643	963.817472086053	0
8	5646	964.252623637907	0
8	5655	964.687775189761	0
8	5660	965.122926741615	0
8	5663	965.558078293469	0
8	5667	965.993229845323	0
8	5672	967.49846099261	0
8	5677	968.781264638001	0
8	5686	969.478881275141	0
8	5689	969.914032826995	0
8	5694	970.349184378849	0
8	5697	970.784335930703	0
8	5704	973.295518408513	0
8	5707	973.730669960367	0
8	5712	974.30177413741	0
8	5717	974.965248375297	0
8	5724	975.920862284818	0
8	5727	976.356013836672	0
8	5732	977.140871972381	0
8	5737	978.562099675398	0
8	5744	982.284034475268	0
8	5747	982.719186027122	0
8	5752	983.57137225819	0
8	5759	984.494115194302	0
8	5762	984.929266746156	0
8	5767	986.725236065062	0
8	5776	989.197421459181	0
8	5781	989.632573011035	0
8	5786	990.067724562889	0
8	5791	990.502876114743	0
8	5794	990.938027666597	0
8	5801	991.373179218451	0
8	5804	991.808330770305	0
8	5809	992.243482322159	0
8	5816	992.678633874013	0
8	5821	993.113785425867	0
8	5824	993.548936977721	0
8	5827	993.984088529575	0
8	5836	995.940349468398	0
8	5839	996.375501020252	0
8	5842	996.810652572106	0
8	5847	997.85979563334	0
8	5854	999.856362349432	0

