version 2
run General-52-20240201-11:04:15-40057
attr configname General
attr datetime 20240201-11:04:15
attr experiment General
attr inifile main.ini
attr iterationvars "$0=2.0, $1=1.7, $2=70"
attr iterationvarsf 2.0,1.7,70-
attr measurement "$0=2.0, $1=1.7, $2=70"
attr network Rete
attr processid 40057
attr repetition 12
attr replication #12
attr resultdir results
attr runnumber 52
attr seedset 52
param Rete.lambda 2.0
param Rete.a 0.3s
param Rete.b 1.7s
param Rete.c 0.1s
param Rete.d 0.3s
param Rete.mu 3.0
param Rete.source2.interArrivalTime exponential(1s/lambda)
param Rete.source2.jobServiceTime exponential(1s/mu)
param Rete.source2.deadline uniform(a,b)
param Rete.server2.j 70
param Rete.server2.V uniform(c,d)

vector 0 Rete.passiveQueue queueLength:vector ETV
attr interpolationmode sample-hold
attr title "queue length, vector"
vector 1 Rete.sink lifeTime:vector ETV
attr interpolationmode none
attr title "lifetime of arrived jobs, vector"
attr unit s
vector 2 Rete.sink totalQueueingTime:vector ETV
attr interpolationmode none
attr title "the total time spent in queues by arrived jobs, vector"
attr unit s
vector 3 Rete.sink queuesVisited:vector ETV
attr interpolationmode none
attr title "the total number of queues visited by arrived jobs, vector"
vector 4 Rete.sink totalServiceTime:vector ETV
attr interpolationmode none
attr title "the total time spent  by arrived jobs, vector"
attr unit s
vector 5 Rete.sink totalDelayTime:vector ETV
attr interpolationmode none
attr title "the total time spent in delay nodes by arrived jobs, vector"
attr unit s
vector 6 Rete.sink delaysVisited:vector ETV
attr interpolationmode none
attr title "the total number of delays visited by arrived jobs, vector"
vector 7 Rete.sink generation:vector ETV
attr interpolationmode none
attr title "the generation of the arrived jobs, vector"
vector 8 Rete.passiveQueue queueingTime:vector ETV
attr interpolationmode none
attr title "queueing time at dequeue, vector"
attr unit s
0	0	0	0
0	601	61.044971337816	1
0	602	61.051278625332	0
0	717	73.941133273548	1
0	718	73.947768568304	0
0	1604	154.225546908003	1
0	1605	154.234296344304	0
0	1709	166.994413878897	1
0	1710	166.994602187578	0
0	2045	199.654417400072	1
0	2046	199.656039522934	0
0	2181	214.96081386764	1
0	2182	214.965683034937	0
0	2206	216.764328424276	1
0	2207	216.76485203444	0
0	2406	240.915290685546	1
0	2407	240.920749727002	0
0	2507	250.673410945786	1
0	2508	250.679838571409	0
0	2973	291.499201991664	1
0	2974	291.506546801293	0
0	3113	307.775993217972	1
0	3114	307.783439954614	0
0	3309	329.293826503662	1
0	3310	329.298660315865	0
0	3469	344.244954759804	1
0	3470	344.245748121923	0
0	3484	345.115912258569	1
0	3485	345.11776239754	0
0	3650	362.760381400475	1
0	3651	362.762108226213	0
0	3926	390.612100380979	1
0	3927	390.620146370209	0
0	4213	419.646786366293	1
0	4214	419.702908622521	0
0	4332	428.903943681452	1
0	4333	428.909412438768	0
0	4915	498.147113013502	1
0	4917	498.155906007772	2
0	4918	498.181502077616	1
0	4920	498.19032378267	0
0	5370	547.06419331654	1
0	5371	547.067042056849	0
0	5756	585.767288039359	1
0	5757	585.77366604937	0
0	6057	620.337824238963	1
0	6058	620.341236482574	0
0	6319	649.150820801887	1
0	6320	649.243842687263	0
0	6628	676.721547847777	1
0	6629	676.726299987285	0
0	7060	719.037504207975	1
0	7061	719.045867322348	0
0	7150	727.577984585388	1
0	7151	727.583273398149	0
0	7290	739.602514661109	1
0	7291	739.609626255883	0
0	7372	748.303347145455	1
0	7373	748.333892444873	0
0	7727	786.159319982181	1
0	7728	786.163272531238	0
0	8074	817.797795102395	1
0	8076	817.870825631144	2
0	8077	817.898428255947	1
0	8079	817.907249961001	0
0	8143	825.798924894355	1
0	8144	825.800541022944	0
0	8223	837.636608329563	1
0	8224	837.644758523602	0
0	8684	884.067786615078	1
0	8685	884.072246935361	0
0	8840	899.318497860534	1
0	8841	899.325298366174	0
0	9141	929.861874236623	1
0	9142	929.868033582654	0
0	9371	953.013128766901	1
0	9372	953.016560960095	0
0	9478	966.466960695757	1
0	9480	966.552029879831	2
0	9481	966.574969049751	1
0	9483	966.583790754805	0
0	9562	974.396479756888	1
0	9563	974.397039759661	0
0	9637	980.320868399779	1
0	9638	980.327488391442	0
0	9727	990.631602398459	1
0	9728	990.633462315997	0
0	9742	992.156496372333	1
0	9743	992.163272565263	0
0	9797	996.954641025331	1
0	9798	996.957446789123	0
1	5	0.874936268854	0.008821705054
1	10	0.993285421865	0.008821705054
1	15	1.266239321399	0.008821705054
1	20	1.747959016158	0.008821705054
1	25	2.62763827451	0.008821705054
1	30	2.679366362101	0.008821705054
1	35	3.183587686087	0.008821705054
1	40	3.667552503653	0.008821705054
1	45	3.98814871257	0.008821705054
1	50	4.015847047464	0.008821705054
1	55	4.919560449494	0.008821705054
1	60	6.537241670424	0.008821705054
1	65	6.553743804691	0.008821705054
1	70	8.520606557678	0.008821705054
1	75	8.557757682201	0.008821705054
1	80	8.925918285926	0.008821705054
1	85	9.048473732413	0.008821705054
1	90	9.554535103792	0.008821705054
1	95	10.147647006662	0.008821705054
1	100	10.871215029332	0.008821705054
1	105	10.906915913156	0.008821705054
1	110	11.630905687141	0.008821705054
1	115	12.177777939367	0.008821705054
1	120	12.448150306035	0.008821705054
1	125	12.801640760365	0.008821705054
1	130	13.533888305867	0.008821705054
1	135	13.869695426036	0.008821705054
1	140	14.144826791581	0.008821705054
1	145	14.42232524053	0.008821705054
1	150	15.724870666798	0.008821705054
1	155	15.87746577758	0.008821705054
1	160	16.450202152949	0.008821705054
1	165	16.760708154258	0.008821705054
1	170	16.990501664897	0.008821705054
1	175	17.195612007025	0.008821705054
1	180	18.174790138337	0.008821705054
1	185	18.384266072254	0.008821705054
1	190	18.623683876256	0.008821705054
1	195	19.195257063815	0.008821705054
1	200	19.245141961464	0.008821705054
1	205	19.658333038861	0.008821705054
1	210	19.854773386116	0.008821705054
1	215	20.138147872329	0.008821705054
1	220	20.406315483856	0.008821705054
1	225	20.742163205625	0.008821705054
1	230	21.420092229348	0.008821705054
1	235	23.145594852929	0.008821705054
1	240	23.681933912889	0.008821705054
1	245	23.97053215306	0.008821705054
1	250	24.082927625719	0.008821705054
1	255	24.703573547022	0.008821705054
1	260	25.529975719865	0.008821705054
1	265	26.418853750904	0.008821705054
1	270	27.190684548335	0.008821705054
1	275	27.620898517757	0.008821705054
1	280	27.872112042057	0.008821705054
1	285	29.006845461906	0.008821705054
1	290	29.364149610632	0.008821705054
1	295	30.772069178872	0.008821705054
1	300	31.567277993158	0.008821705054
1	305	32.337988784083	0.008821705054
1	310	32.632722570642	0.008821705054
1	315	33.091897813528	0.008821705054
1	320	33.771367610234	0.008821705054
1	325	34.098966254121	0.008821705054
1	330	34.139977668218	0.008821705054
1	335	34.747585860041	0.008821705054
1	340	35.081954880107	0.008821705054
1	345	35.54131739253	0.008821705054
1	350	35.826241433725	0.008821705054
1	356	37.889165412198	0.008821705054
1	361	38.030385294121	0.008821705054
1	366	38.306700897323	0.008821705054
1	371	39.295651643916	0.008821705054
1	376	39.704908281593	0.008821705054
1	381	39.715021146612	0.008821705054
1	386	39.965097251832	0.008821705054
1	391	40.26476786927	0.008821705054
1	396	40.892914316491	0.008821705054
1	401	40.917206416576	0.008821705054
1	406	41.215988617382	0.008821705054
1	411	41.560294850571	0.008821705054
1	416	42.162480722751	0.008821705054
1	421	43.141177656146	0.008821705054
1	426	43.742370342183	0.008821705054
1	431	43.946215875918	0.008821705054
1	436	44.553016560784	0.008821705054
1	441	45.712323136399	0.008821705054
1	446	46.132521627788	0.008821705054
1	451	46.198081667739	0.008821705054
1	456	46.371704498335	0.008821705054
1	461	46.457355988466	0.008821705054
1	466	47.32573474672	0.008821705054
1	471	48.099871562309	0.008821705054
1	476	49.272136542302	0.008821705054
1	481	49.818857967006	0.008821705054
1	486	50.277355577949	0.008821705054
1	491	50.914203137468	0.008821705054
1	496	51.542606940791	0.008821705054
1	501	51.93006256393	0.008821705054
1	506	52.11976575878	0.008821705054
1	511	52.439045505297	0.008821705054
1	516	52.462314720343	0.008821705054
1	521	53.617056652437	0.008821705054
1	526	53.863114317672	0.008821705054
1	531	54.097726293539	0.008821705054
1	536	54.277902300106	0.008821705054
1	541	54.653064277026	0.008821705054
1	546	55.004649648007	0.008821705054
1	551	55.597541638533	0.008821705054
1	556	55.988674334112	0.008821705054
1	561	56.265861342361	0.008821705054
1	566	56.472175659055	0.008821705054
1	571	56.981028353663	0.008821705054
1	576	57.01625148091	0.008821705054
1	581	57.467352552553	0.008821705054
1	586	58.459212699998	0.008821705054
1	591	58.762038220143	0.008821705054
1	596	59.814138430363	0.008821705054
1	603	61.051278625332	0.008821705054
1	606	61.060100330386	0.01512899257
1	611	61.735213624893	0.008821705054
1	616	61.914352637851	0.008821705054
1	621	63.24032323145	0.008821705054
1	626	63.619138147872	0.008821705054
1	631	64.728158959057	0.008821705054
1	636	66.35802763903	0.008821705054
1	641	66.551103944821	0.008821705054
1	646	66.625274516979	0.008821705054
1	651	67.210908502165	0.008821705054
1	656	67.938315250977	0.008821705054
1	661	67.968651226188	0.008821705054
1	666	68.621284071455	0.008821705054
1	671	68.733972005432	0.008821705054
1	676	69.331146118625	0.008821705054
1	681	69.97312651181	0.008821705054
1	686	70.344327732483	0.008821705054
1	691	71.041511001325	0.008821705054
1	696	71.287788449181	0.008821705054
1	701	71.46283756347	0.008821705054
1	707	72.318123675187	0.008821705054
1	712	73.908515574685	0.008821705054
1	719	73.947768568304	0.008821705054
1	722	73.956590273358	0.01545699981
1	727	74.488525341343	0.008821705054
1	732	74.703718485175	0.008821705054
1	737	75.0008851236	0.008821705054
1	742	75.110885852057	0.008821705054
1	747	75.120723646646	0.008821705054
1	752	75.408484398452	0.008821705054
1	757	76.154428556875	0.008821705054
1	762	77.48132083588	0.008821705054
1	767	78.362527980297	0.008821705054
1	772	78.526950515647	0.008821705054
1	777	79.245860679515	0.008821705054
1	782	79.525067344958	0.008821705054
1	787	80.33281739141	0.008821705054
1	792	80.645715855666	0.008821705054
1	797	80.833535026061	0.008821705054
1	802	81.799472931872	0.008821705054
1	807	82.204201558704	0.008821705054
1	812	84.284022113472	0.008821705054
1	817	84.538185942283	0.008821705054
1	822	84.862968901041	0.008821705054
1	827	85.096859008028	0.008821705054
1	832	85.481553962026	0.008821705054
1	837	85.631505139866	0.008821705054
1	842	86.393604687446	0.008821705054
1	847	87.433952117758	0.008821705054
1	852	88.277179822703	0.008821705054
1	857	88.291719752576	0.008821705054
1	862	88.370429925248	0.008821705054
1	867	88.530474655104	0.008821705054
1	872	88.740685097739	0.008821705054
1	877	89.071006525532	0.008821705054
1	882	89.665745541902	0.008821705054
1	887	91.074913299111	0.008821705054
1	892	91.179175871033	0.008821705054
1	897	91.449390386122	0.008821705054
1	902	91.753264904803	0.008821705054
1	907	91.990094138373	0.008821705054
1	912	93.750474551619	0.008821705054
1	917	94.821156487539	0.008821705054
1	922	97.408833783407	0.008821705054
1	927	98.03096373772	0.008821705054
1	932	98.725128709997	0.008821705054
1	937	99.001911365355	0.008821705054
1	942	99.360927389708	0.008821705054
1	947	99.619964668976	0.008821705054
1	952	99.981533213391	0.008821705054
1	957	100.565961052383	0.008821705054
1	962	100.601801507124	0.008821705054
1	967	100.929652466065	0.008821705054
1	972	102.703036321777	0.008821705054
1	977	102.968310833547	0.008821705054
1	982	104.516865699537	0.008821705054
1	987	105.221552113356	0.008821705054
1	992	105.978653039809	0.008821705054
1	997	106.225241232943	0.008821705054
1	1002	107.168808365408	0.008821705054
1	1007	107.204131944576	0.008821705054
1	1012	107.459016454918	0.008821705054
1	1017	107.743163835695	0.008821705054
1	1022	108.540250980383	0.008821705054
1	1027	108.853781812339	0.008821705054
1	1032	108.862696166078	0.008821705054
1	1037	108.903010129729	0.008821705054
1	1042	108.99463738094	0.008821705054
1	1047	109.233278843155	0.008821705054
1	1052	109.345208578192	0.008821705054
1	1058	109.526078905869	0.008821705054
1	1063	109.663796579292	0.008821705054
1	1068	109.836577143051	0.008821705054
1	1073	109.876678077284	0.008821705054
1	1078	110.039195770503	0.008821705054
1	1083	110.697270550237	0.008821705054
1	1088	110.714164122433	0.008821705054
1	1093	110.768600758064	0.008821705054
1	1098	111.394264153088	0.008821705054
1	1103	111.662050695384	0.008821705054
1	1108	111.86026922156	0.008821705054
1	1113	111.985260453035	0.008821705054
1	1118	112.22568869261	0.008821705054
1	1123	113.631747961467	0.008821705054
1	1128	113.664084565912	0.008821705054
1	1133	114.016553222031	0.008821705054
1	1138	114.107538184928	0.008821705054
1	1143	114.576813387979	0.008821705054
1	1148	114.854473383658	0.008821705054
1	1153	115.292562829539	0.008821705054
1	1158	115.541079826916	0.008821705054
1	1163	115.881499582073	0.008821705054
1	1168	116.178816011351	0.008821705054
1	1173	116.270065096472	0.008821705054
1	1178	116.44224575042	0.008821705054
1	1183	117.244024943588	0.008821705054
1	1188	117.472333860925	0.008821705054
1	1193	118.296111525259	0.008821705054
1	1198	118.661773410667	0.008821705054
1	1203	119.194936722959	0.008821705054
1	1208	119.784896769344	0.008821705054
1	1213	119.853636072037	0.008821705054
1	1218	119.986003246208	0.008821705054
1	1223	120.414369297844	0.008821705054
1	1228	120.970915668942	0.008821705054
1	1233	121.136423978147	0.008821705054
1	1238	121.331020537062	0.008821705054
1	1243	121.48177534171	0.008821705054
1	1248	123.039942733913	0.008821705054
1	1253	123.513170961666	0.008821705054
1	1258	123.750164464837	0.008821705054
1	1263	124.239883265898	0.008821705054
1	1268	124.570604658349	0.008821705054
1	1273	124.807033809048	0.008821705054
1	1278	125.35949499734	0.008821705054
1	1283	125.629610044789	0.008821705054
1	1288	125.941406806038	0.008821705054
1	1293	126.178242853294	0.008821705054
1	1298	126.786099979974	0.008821705054
1	1303	126.884345765081	0.008821705054
1	1308	126.98264246541	0.008821705054
1	1313	127.000674890976	0.008821705054
1	1318	127.311209282469	0.008821705054
1	1323	127.608875618702	0.008821705054
1	1328	127.898084824872	0.008821705054
1	1333	128.770459221829	0.008821705054
1	1338	129.967685194931	0.008821705054
1	1343	130.181067059497	0.008821705054
1	1348	130.327419528035	0.008821705054
1	1353	130.402762832288	0.008821705054
1	1358	130.834200510249	0.008821705054
1	1363	131.043821987363	0.008821705054
1	1368	131.398852509848	0.008821705054
1	1373	133.098580403992	0.008821705054
1	1378	133.265743964236	0.008821705054
1	1383	133.399219056753	0.008821705054
1	1388	133.774283097203	0.008821705054
1	1393	134.029374189556	0.008821705054
1	1398	135.588067674063	0.008821705054
1	1403	137.15603200688	0.008821705054
1	1409	137.30212502165	0.008821705054
1	1414	137.853342109637	0.008821705054
1	1419	139.020184875287	0.008821705054
1	1424	139.282732667488	0.008821705054
1	1429	139.72179413301	0.008821705054
1	1434	140.311386761513	0.008821705054
1	1439	140.487049832139	0.008821705054
1	1444	141.102296891891	0.008821705054
1	1449	141.56276366959	0.008821705054
1	1454	141.679315287546	0.008821705054
1	1459	142.357024806641	0.008821705054
1	1464	142.510125705205	0.008821705054
1	1469	142.661102727824	0.008821705054
1	1474	143.515973712238	0.008821705054
1	1479	143.728824169504	0.008821705054
1	1484	143.831428120144	0.008821705054
1	1489	144.155731209906	0.008821705054
1	1494	144.85142083445	0.008821705054
1	1499	145.402987309936	0.008821705054
1	1504	145.457907035979	0.008821705054
1	1509	145.623059440584	0.008821705054
1	1514	146.380129178033	0.008821705054
1	1519	146.988829335144	0.008821705054
1	1524	147.206091504255	0.008821705054
1	1529	148.289085757859	0.008821705054
1	1534	149.327027252114	0.008821705054
1	1539	149.537360079312	0.008821705054
1	1544	149.978958466546	0.008821705054
1	1549	150.931904238822	0.008821705054
1	1554	150.970408826472	0.008821705054
1	1559	151.326947023689	0.008821705054
1	1564	151.655633341753	0.008821705054
1	1569	152.048513445266	0.008821705054
1	1574	152.41516923275	0.008821705054
1	1579	153.239571027018	0.008821705054
1	1584	153.363493762527	0.008821705054
1	1589	153.789362960138	0.008821705054
1	1594	153.822042990019	0.008821705054
1	1599	153.942299911481	0.008821705054
1	1606	154.234296344304	0.008821705054
1	1609	154.243118049358	0.017571141355
1	1614	154.319297029372	0.008821705054
1	1619	154.941721556422	0.008821705054
1	1624	155.586395588619	0.008821705054
1	1629	155.641381993465	0.008821705054
1	1634	158.285763545204	0.008821705054
1	1639	158.693391830936	0.008821705054
1	1644	159.103948888116	0.008821705054
1	1649	160.684390324134	0.008821705054
1	1654	162.0028307202	0.008821705054
1	1659	162.238464408996	0.008821705054
1	1664	162.725669431168	0.008821705054
1	1669	163.084064625429	0.008821705054
1	1674	163.340034396109	0.008821705054
1	1679	163.650474734341	0.008821705054
1	1684	163.892655813971	0.008821705054
1	1689	165.454272830435	0.008821705054
1	1694	166.537890068928	0.008821705054
1	1699	166.751231322534	0.008821705054
1	1704	166.922920820348	0.008821705054
1	1711	166.994602187578	0.008821705054
1	1714	167.003423892632	0.009010013735
1	1719	169.055718758188	0.008821705054
1	1724	169.55565566233	0.008821705054
1	1729	169.574579434672	0.008821705054
1	1734	170.461405529023	0.008821705054
1	1739	170.958586160638	0.008821705054
1	1744	172.184834703778	0.008821705054
1	1749	172.390107702666	0.008821705054
1	1754	172.399213060226	0.008821705054
1	1760	172.975144438312	0.008821705054
1	1765	173.880201091579	0.008821705054
1	1770	174.724146967735	0.008821705054
1	1775	174.986044189555	0.008821705054
1	1780	175.667966866199	0.008821705054
1	1785	176.012518844774	0.008821705054
1	1790	177.543636716429	0.008821705054
1	1795	177.869647700753	0.008821705054
1	1800	178.329769356094	0.008821705054
1	1805	178.351151341044	0.008821705054
1	1810	178.737340256789	0.008821705054
1	1815	179.633439054789	0.008821705054
1	1820	180.871020759112	0.008821705054
1	1825	180.883529101374	0.008821705054
1	1830	181.37983374061	0.008821705054
1	1835	181.89339856842	0.008821705054
1	1840	182.572274113433	0.008821705054
1	1845	182.59839485195	0.008821705054
1	1850	182.841177152874	0.008821705054
1	1855	183.146299371013	0.008821705054
1	1860	183.7012716356	0.008821705054
1	1865	184.093145470749	0.008821705054
1	1870	184.123583119136	0.008821705054
1	1875	184.168759141115	0.008821705054
1	1880	185.042791445884	0.008821705054
1	1885	186.236801279267	0.008821705054
1	1890	186.566049809197	0.008821705054
1	1895	186.74158660058	0.008821705054
1	1900	186.966222157449	0.008821705054
1	1905	187.114170593341	0.008821705054
1	1910	187.222708811381	0.008821705054
1	1915	187.296969363548	0.008821705054
1	1920	187.795253943564	0.008821705054
1	1925	188.88665395236	0.008821705054
1	1930	189.245536655315	0.008821705054
1	1935	189.359011467778	0.008821705054
1	1940	190.709967933672	0.008821705054
1	1945	190.726590772685	0.008821705054
1	1950	190.813314802268	0.008821705054
1	1955	191.195005469539	0.008821705054
1	1960	191.848730798402	0.008821705054
1	1965	191.860953287285	0.008821705054
1	1970	192.027938077411	0.008821705054
1	1975	192.151904627917	0.008821705054
1	1980	192.878669226711	0.008821705054
1	1985	193.89803000003	0.008821705054
1	1990	194.378362012301	0.008821705054
1	1995	194.474185522356	0.008821705054
1	2000	195.194549143761	0.008821705054
1	2005	195.946434364189	0.008821705054
1	2010	196.664687288077	0.008821705054
1	2015	197.073146487722	0.008821705054
1	2020	197.248143878908	0.008821705054
1	2025	197.5388837952	0.008821705054
1	2030	198.037910676785	0.008821705054
1	2035	198.432086996446	0.008821705054
1	2040	199.060022556265	0.008821705054
1	2047	199.656039522934	0.008821705054
1	2050	199.664861227988	0.010443827916
1	2055	199.721578247042	0.008821705054
1	2060	199.74398452341	0.008821705054
1	2065	200.254290478868	0.008821705054
1	2070	200.55926751195	0.008821705054
1	2075	200.820268574641	0.008821705054
1	2080	200.879371976675	0.008821705054
1	2085	200.960281531449	0.008821705054
1	2090	201.633270495774	0.008821705054
1	2095	202.415229257036	0.008821705054
1	2100	204.631042490673	0.008821705054
1	2105	204.66181068876	0.008821705054
1	2111	204.95462928799	0.008821705054
1	2116	205.017475627032	0.008821705054
1	2121	207.170089520082	0.008821705054
1	2126	207.584554604708	0.008821705054
1	2131	207.897311695828	0.008821705054
1	2136	208.381007083004	0.008821705054
1	2141	208.72373407334	0.008821705054
1	2146	208.73639425881	0.008821705054
1	2151	208.842934821687	0.008821705054
1	2156	209.005937050809	0.008821705054
1	2161	209.478880800068	0.008821705054
1	2166	213.06572973098	0.008821705054
1	2171	213.472765823075	0.008821705054
1	2176	214.590933857466	0.008821705054
1	2183	214.965683034937	0.008821705054
1	2186	214.974504739991	0.013690872351
1	2191	215.230001983727	0.008821705054
1	2196	216.063768667771	0.008821705054
1	2201	216.405099875957	0.008821705054
1	2208	216.76485203444	0.008821705054
1	2211	216.773673739494	0.009345315218
1	2216	218.168295001407	0.008821705054
1	2221	219.408003117257	0.008821705054
1	2226	220.223042275846	0.008821705054
1	2231	220.894008698399	0.008821705054
1	2236	221.775799038093	0.008821705054
1	2241	222.194717189093	0.008821705054
1	2246	222.482021374544	0.008821705054
1	2251	222.708574472443	0.008821705054
1	2256	223.236552737153	0.008821705054
1	2261	223.2590934019	0.008821705054
1	2266	223.726331573215	0.008821705054
1	2271	224.266384748486	0.008821705054
1	2276	224.479580556076	0.008821705054
1	2281	224.8708358158	0.008821705054
1	2286	226.12238183736	0.008821705054
1	2291	226.241217417884	0.008821705054
1	2296	226.549423624147	0.008821705054
1	2301	226.974894599648	0.008821705054
1	2306	227.27676389268	0.008821705054
1	2311	228.05586462767	0.008821705054
1	2316	229.181726131787	0.008821705054
1	2321	229.422819061427	0.008821705054
1	2326	229.600629577692	0.008821705054
1	2331	230.919062473453	0.008821705054
1	2336	232.414538184388	0.008821705054
1	2341	232.456366630998	0.008821705054
1	2346	234.20568588348	0.008821705054
1	2351	234.898084823604	0.008821705054
1	2356	234.996187288379	0.008821705054
1	2361	236.359994713771	0.008821705054
1	2366	236.962974754627	0.008821705054
1	2371	237.954048743425	0.008821705054
1	2376	238.456715123376	0.008821705054
1	2381	238.661729356417	0.008821705054
1	2386	238.913211519505	0.008821705054
1	2391	239.539057446841	0.008821705054
1	2396	239.639058507821	0.008821705054
1	2401	239.656376162554	0.008821705054
1	2408	240.920749727002	0.008821705054
1	2411	240.929571432056	0.01428074651
1	2416	241.002146729057	0.008821705054
1	2421	241.533478422707	0.008821705054
1	2426	241.762574777161	0.008821705054
1	2431	241.901924396719	0.008821705054
1	2436	243.114575774211	0.008821705054
1	2441	244.237011901304	0.008821705054
1	2446	244.293170323237	0.008821705054
1	2451	244.51790978755	0.008821705054
1	2456	244.93577079929	0.008821705054
1	2462	245.135411632125	0.008821705054
1	2467	245.325222763632	0.008821705054
1	2472	245.667718877193	0.008821705054
1	2477	246.88855707836	0.008821705054
1	2482	247.496372531011	0.008821705054
1	2487	248.458899665236	0.008821705054
1	2492	249.134973304662	0.008821705054
1	2497	249.744254557059	0.008821705054
1	2502	250.046893581765	0.008821705054
1	2509	250.679838571409	0.008821705054
1	2512	250.688660276463	0.015249330677
1	2517	250.953849016944	0.008821705054
1	2522	251.094043730072	0.008821705054
1	2527	251.585024631298	0.008821705054
1	2532	251.601802692866	0.008821705054
1	2537	252.147521143024	0.008821705054
1	2542	254.12329893049	0.008821705054
1	2547	254.635318806824	0.008821705054
1	2552	254.6634932481	0.008821705054
1	2557	255.565743986357	0.008821705054
1	2562	255.614145281183	0.008821705054
1	2567	256.334740486261	0.008821705054
1	2572	257.402662883772	0.008821705054
1	2577	258.440268097089	0.008821705054
1	2582	259.14643447411	0.008821705054
1	2587	259.615803892712	0.008821705054
1	2592	260.790998479974	0.008821705054
1	2597	260.874433927342	0.008821705054
1	2602	260.962039289177	0.008821705054
1	2607	261.145790745805	0.008821705054
1	2612	261.482889330302	0.008821705054
1	2617	261.506480974079	0.008821705054
1	2622	263.438224210446	0.008821705054
1	2627	263.447732390646	0.008821705054
1	2632	265.471524021274	0.008821705054
1	2637	265.604995470272	0.008821705054
1	2642	265.689881155618	0.008821705054
1	2647	266.239592521096	0.008821705054
1	2652	266.616229489133	0.008821705054
1	2657	267.069476606778	0.008821705054
1	2662	267.301119285471	0.008821705054
1	2667	267.341481528124	0.008821705054
1	2672	268.333514270283	0.008821705054
1	2677	268.458302589562	0.008821705054
1	2682	268.489064657773	0.008821705054
1	2687	268.785645779451	0.008821705054
1	2692	269.206321996684	0.008821705054
1	2697	269.479192894171	0.008821705054
1	2702	269.582571116275	0.008821705054
1	2707	269.62000315995	0.008821705054
1	2712	271.243896187511	0.008821705054
1	2717	271.413072159422	0.008821705054
1	2722	271.74086597922	0.008821705054
1	2727	271.951412321176	0.008821705054
1	2732	272.342427074077	0.008821705054
1	2737	272.522199909487	0.008821705054
1	2742	272.793258251232	0.008821705054
1	2747	273.045744316904	0.008821705054
1	2752	273.058204773902	0.008821705054
1	2757	273.17439234622	0.008821705054
1	2762	273.679206560578	0.008821705054
1	2767	274.352818757056	0.008821705054
1	2772	274.377218996774	0.008821705054
1	2777	274.552850798788	0.008821705054
1	2782	274.735895721307	0.008821705054
1	2787	275.303630643389	0.008821705054
1	2792	275.572508792159	0.008821705054
1	2797	275.723727380912	0.008821705054
1	2802	275.838587861356	0.008821705054
1	2807	276.101753481359	0.008821705054
1	2813	276.316206145898	0.008821705054
1	2818	276.437648815315	0.008821705054
1	2823	277.243433439042	0.008821705054
1	2828	277.280813448743	0.008821705054
1	2833	277.925059264474	0.008821705054
1	2838	278.386546484721	0.008821705054
1	2843	280.678094285302	0.008821705054
1	2848	281.215872028345	0.008821705054
1	2853	281.531078328197	0.008821705054
1	2858	282.055633368699	0.008821705054
1	2863	282.77096074038	0.008821705054
1	2868	283.29999358014	0.008821705054
1	2873	284.435222546761	0.008821705054
1	2878	284.517671672159	0.008821705054
1	2883	286.034730417451	0.008821705054
1	2888	286.204197997354	0.008821705054
1	2893	286.461003533727	0.008821705054
1	2898	286.661074872299	0.008821705054
1	2903	286.82273957688	0.008821705054
1	2908	287.217886753502	0.008821705054
1	2913	287.296901454795	0.008821705054
1	2918	288.286974754784	0.008821705054
1	2923	288.324451901712	0.008821705054
1	2928	288.686556801694	0.008821705054
1	2933	288.940228362703	0.008821705054
1	2938	289.014097192881	0.008821705054
1	2943	289.372962233439	0.008821705054
1	2948	289.915794500806	0.008821705054
1	2953	290.394718568934	0.008821705054
1	2958	290.977621230175	0.008821705054
1	2963	291.299883438324	0.008821705054
1	2968	291.364639337959	0.008821705054
1	2975	291.506546801293	0.008821705054
1	2978	291.515368506347	0.016166514683
1	2983	291.584830939308	0.008821705054
1	2988	292.198875939959	0.008821705054
1	2993	292.907967591767	0.008821705054
1	2998	294.653297132826	0.008821705054
1	3003	295.589995732297	0.008821705054
1	3008	297.067645173766	0.008821705054
1	3013	297.630089705935	0.008821705054
1	3018	297.802019512802	0.008821705054
1	3023	298.104318070747	0.008821705054
1	3028	298.468414199114	0.008821705054
1	3033	298.485919746403	0.008821705054
1	3038	298.606156810289	0.008821705054
1	3043	301.721756638496	0.008821705054
1	3048	302.338988395177	0.008821705054
1	3053	303.068864256604	0.008821705054
1	3058	303.083737970032	0.008821705054
1	3063	303.131981917901	0.008821705054
1	3068	304.872088392873	0.008821705054
1	3073	305.124837646564	0.008821705054
1	3078	305.382907159745	0.008821705054
1	3083	305.585933528656	0.008821705054
1	3088	305.997709896985	0.008821705054
1	3093	306.056471213735	0.008821705054
1	3098	306.236035254686	0.008821705054
1	3103	306.6279253182	0.008821705054
1	3108	307.571567037773	0.008821705054
1	3115	307.783439954614	0.008821705054
1	3118	307.792261659668	0.016268441696
1	3123	308.489022645153	0.008821705054
1	3128	308.725972398978	0.008821705054
1	3133	308.805693314975	0.008821705054
1	3138	309.509979257434	0.008821705054
1	3143	309.824754698783	0.008821705054
1	3148	310.317332825495	0.008821705054
1	3153	310.626409327875	0.008821705054
1	3158	311.531013937125	0.008821705054
1	3164	311.953341102971	0.008821705054
1	3169	312.973571936949	0.008821705054
1	3174	313.335769774889	0.008821705054
1	3179	314.051787543297	0.008821705054
1	3184	314.649786925742	0.008821705054
1	3189	314.883308413087	0.008821705054
1	3194	315.349161561935	0.008821705054
1	3199	316.041839487711	0.008821705054
1	3204	316.877980958695	0.008821705054
1	3209	317.103701886725	0.008821705054
1	3214	317.593935331488	0.008821705054
1	3219	318.063329866936	0.008821705054
1	3224	318.50469229785	0.008821705054
1	3229	319.965400996333	0.008821705054
1	3234	321.238011350091	0.008821705054
1	3239	322.113697501894	0.008821705054
1	3244	322.484397188104	0.008821705054
1	3249	324.741996864384	0.008821705054
1	3254	325.542692063675	0.008821705054
1	3259	325.892483702372	0.008821705054
1	3264	326.333776001821	0.008821705054
1	3269	326.448392274253	0.008821705054
1	3274	327.164102990064	0.008821705054
1	3279	328.043022376333	0.008821705054
1	3284	328.123481746805	0.008821705054
1	3289	328.392264478386	0.008821705054
1	3294	328.601333706881	0.008821705054
1	3299	329.151849128337	0.008821705054
1	3304	329.25066011729	0.008821705054
1	3311	329.298660315865	0.008821705054
1	3314	329.307482020919	0.013655517257
1	3319	330.155648152113	0.008821705054
1	3324	330.284286045241	0.008821705054
1	3329	330.79334602189	0.008821705054
1	3334	330.903774533552	0.008821705054
1	3339	331.438157410261	0.008821705054
1	3344	333.72166185807	0.008821705054
1	3349	334.500802979483	0.008821705054
1	3354	334.942951402656	0.008821705054
1	3359	335.293513892982	0.008821705054
1	3364	336.673696325175	0.008821705054
1	3369	336.838026131619	0.008821705054
1	3374	336.951075759723	0.008821705054
1	3379	337.919638100314	0.008821705054
1	3384	338.185787871678	0.008821705054
1	3389	338.861472368369	0.008821705054
1	3394	338.956515419754	0.008821705054
1	3399	338.999184326754	0.008821705054
1	3404	339.489490674832	0.008821705054
1	3409	339.576424927097	0.008821705054
1	3414	339.839393795756	0.008821705054
1	3419	340.21833921536	0.008821705054
1	3424	340.284848946248	0.008821705054
1	3429	341.624007144602	0.008821705054
1	3434	341.761142772373	0.008821705054
1	3439	342.371056127045	0.008821705054
1	3444	342.599917696631	0.008821705054
1	3449	342.764546364441	0.008821705054
1	3454	343.04876275962	0.008821705054
1	3459	343.078351101685	0.008821705054
1	3464	343.988587733755	0.008821705054
1	3471	344.245748121923	0.008821705054
1	3474	344.254569826977	0.009615067173
1	3479	344.621050360024	0.008821705054
1	3486	345.11776239754	0.008821705054
1	3489	345.126584102594	0.010671844025
1	3494	345.252163778001	0.008821705054
1	3499	345.499210108498	0.008821705054
1	3504	345.886033118678	0.008821705054
1	3509	346.876145659328	0.008821705054
1	3515	347.070192813279	0.008821705054
1	3520	347.183211154644	0.008821705054
1	3525	347.439585541376	0.008821705054
1	3530	348.6263028803	0.008821705054
1	3535	348.797890190717	0.008821705054
1	3540	350.102415153057	0.008821705054
1	3545	351.084314209687	0.008821705054
1	3550	351.395841135769	0.008821705054
1	3555	351.832298369918	0.008821705054
1	3560	352.777080784254	0.008821705054
1	3565	352.969540876539	0.008821705054
1	3570	355.072517368435	0.008821705054
1	3575	355.629198521348	0.008821705054
1	3580	355.749768934612	0.008821705054
1	3585	355.815559962716	0.008821705054
1	3590	356.317758082108	0.008821705054
1	3595	356.732342514699	0.008821705054
1	3600	357.202401093208	0.008821705054
1	3605	357.546553929176	0.008821705054
1	3610	358.22325225068	0.008821705054
1	3615	358.752664829792	0.008821705054
1	3620	359.019781893018	0.008821705054
1	3625	360.395858540905	0.008821705054
1	3630	361.131707075367	0.008821705054
1	3635	361.34043643547	0.008821705054
1	3640	361.391799648389	0.008821705054
1	3645	362.069953626837	0.008821705054
1	3652	362.762108226213	0.008821705054
1	3655	362.770929931267	0.010548530792
1	3660	362.787364296626	0.008821705054
1	3665	362.818004656201	0.008821705054
1	3670	363.187629011943	0.008821705054
1	3675	363.965602734048	0.008821705054
1	3680	364.410899509332	0.008821705054
1	3685	364.592606993165	0.008821705054
1	3690	364.630726167013	0.008821705054
1	3695	364.931037958283	0.008821705054
1	3700	365.232478292929	0.008821705054
1	3705	365.91150144739	0.008821705054
1	3710	366.566544989598	0.008821705054
1	3715	368.350815725585	0.008821705054
1	3720	368.946266022264	0.008821705054
1	3725	369.366246569182	0.008821705054
1	3730	370.171464835586	0.008821705054
1	3735	371.547604286374	0.008821705054
1	3740	371.558793695143	0.008821705054
1	3745	371.806856872653	0.008821705054
1	3750	372.299382838866	0.008821705054
1	3755	372.723736454394	0.008821705054
1	3760	372.905087004881	0.008821705054
1	3765	374.741604097604	0.008821705054
1	3770	377.482435090867	0.008821705054
1	3775	377.589483385453	0.008821705054
1	3780	377.718980699944	0.008821705054
1	3785	378.446217689284	0.008821705054
1	3790	378.456808821658	0.008821705054
1	3795	379.253069005503	0.008821705054
1	3800	380.450592579898	0.008821705054
1	3805	380.922760447238	0.008821705054
1	3810	381.714979531841	0.008821705054
1	3815	381.848101579123	0.008821705054
1	3820	382.391319160047	0.008821705054
1	3825	382.817559531637	0.008821705054
1	3830	383.668034601482	0.008821705054
1	3835	384.217463068927	0.008821705054
1	3840	384.453378940676	0.008821705054
1	3845	384.762080371613	0.008821705054
1	3850	385.322179641844	0.008821705054
1	3855	386.857336672694	0.008821705054
1	3860	386.910073023658	0.008821705054
1	3866	387.159453244006	0.008821705054
1	3871	387.521503140356	0.008821705054
1	3876	387.842420403008	0.008821705054
1	3881	387.990112475592	0.008821705054
1	3886	388.265513948597	0.008821705054
1	3891	388.383636028726	0.008821705054
1	3896	388.745365358377	0.008821705054
1	3901	388.910485931648	0.008821705054
1	3906	389.856348915248	0.008821705054
1	3911	390.083914105562	0.008821705054
1	3916	390.290751605727	0.008821705054
1	3921	390.500574405758	0.008821705054
1	3928	390.620146370209	0.008821705054
1	3931	390.628968075263	0.016867694284
1	3936	391.977148785501	0.008821705054
1	3941	392.103812677612	0.008821705054
1	3946	392.538244530072	0.008821705054
1	3951	393.07019016155	0.008821705054
1	3956	393.562155329751	0.008821705054
1	3961	393.826458128484	0.008821705054
1	3966	394.801290805786	0.008821705054
1	3971	395.421962927914	0.008821705054
1	3976	396.003431803099	0.008821705054
1	3981	397.589310807403	0.008821705054
1	3986	398.296445939196	0.008821705054
1	3991	398.360302207393	0.008821705054
1	3996	400.534965191769	0.008821705054
1	4001	401.086673071429	0.008821705054
1	4006	401.241362889477	0.008821705054
1	4011	401.449821539011	0.008821705054
1	4016	401.657994685451	0.008821705054
1	4021	402.526221666415	0.008821705054
1	4026	403.065324946243	0.008821705054
1	4031	404.550804029434	0.008821705054
1	4036	404.718912829459	0.008821705054
1	4041	404.837571688681	0.008821705054
1	4046	404.932443512615	0.008821705054
1	4051	405.467007855535	0.008821705054
1	4056	405.480189071571	0.008821705054
1	4061	406.040972721698	0.008821705054
1	4066	406.318662380513	0.008821705054
1	4071	406.5784934553	0.008821705054
1	4076	407.164872088549	0.008821705054
1	4081	407.424406760667	0.008821705054
1	4086	408.159355630972	0.008821705054
1	4091	408.245481858845	0.008821705054
1	4096	408.452760259313	0.008821705054
1	4101	409.335157550206	0.008821705054
1	4106	410.382519757833	0.008821705054
1	4111	410.663054077287	0.008821705054
1	4116	410.714430756202	0.008821705054
1	4121	411.115660271479	0.008821705054
1	4126	411.485445631279	0.008821705054
1	4131	412.408809379499	0.008821705054
1	4136	412.736330385664	0.008821705054
1	4141	413.066854335228	0.008821705054
1	4146	413.408699484375	0.008821705054
1	4151	413.464274922025	0.008821705054
1	4156	413.477565607566	0.008821705054
1	4161	413.614115417966	0.008821705054
1	4166	414.158473472809	0.008821705054
1	4171	414.949804922851	0.008821705054
1	4176	415.601020630029	0.008821705054
1	4181	415.938193894095	0.008821705054
1	4186	416.707339048467	0.008821705054
1	4191	417.56176508336	0.008821705054
1	4196	417.916973151398	0.008821705054
1	4201	418.444913842019	0.008821705054
1	4206	418.676322455314	0.008821705054
1	4211	419.573657928594	0.008821705054
1	4217	419.711730327575	0.064943961282
1	4222	420.556865771021	0.008821705054
1	4227	421.233723697621	0.008821705054
1	4232	422.212897765267	0.008821705054
1	4237	422.77593848368	0.008821705054
1	4242	423.296454081113	0.008821705054
1	4247	423.838058195595	0.008821705054
1	4252	423.854412427843	0.008821705054
1	4257	424.012072935475	0.008821705054
1	4262	424.42597583783	0.008821705054
1	4267	424.725775937593	0.008821705054
1	4272	425.171597329702	0.008821705054
1	4277	425.462972565691	0.008821705054
1	4282	425.509081911809	0.008821705054
1	4287	425.630278525258	0.008821705054
1	4292	425.832530132469	0.008821705054
1	4297	426.453515090383	0.008821705054
1	4302	426.980115737599	0.008821705054
1	4307	427.151322204849	0.008821705054
1	4312	427.344590357091	0.008821705054
1	4317	427.649051217158	0.008821705054
1	4322	428.020977003136	0.008821705054
1	4327	428.687721060372	0.008821705054
1	4334	428.909412438768	0.008821705054
1	4337	428.918234143822	0.01429046237
1	4342	430.663875230981	0.008821705054
1	4347	431.246501945518	0.008821705054
1	4352	432.030782088692	0.008821705054
1	4357	435.705310045351	0.008821705054
1	4362	436.05617189167	0.008821705054
1	4367	436.163954164957	0.008821705054
1	4372	436.18012664062	0.008821705054
1	4377	436.425136857446	0.008821705054
1	4382	437.351167248638	0.008821705054
1	4387	437.526066817916	0.008821705054
1	4392	437.828368367367	0.008821705054
1	4397	438.788617220451	0.008821705054
1	4402	439.981395954184	0.008821705054
1	4407	440.531887236703	0.008821705054
1	4412	440.973517087488	0.008821705054
1	4417	441.116450422783	0.008821705054
1	4422	441.318779598048	0.008821705054
1	4427	441.436798947239	0.008821705054
1	4432	442.379133632684	0.008821705054
1	4437	442.432064697833	0.008821705054
1	4442	442.727413850912	0.008821705054
1	4447	443.036292788519	0.008821705054
1	4452	443.790414462979	0.008821705054
1	4457	443.86218498007	0.008821705054
1	4462	444.559804646184	0.008821705054
1	4467	444.849171167903	0.008821705054
1	4472	445.414706879452	0.008821705054
1	4477	445.489778974531	0.008821705054
1	4482	446.111569962644	0.008821705054
1	4487	446.497635767566	0.008821705054
1	4492	447.514136824359	0.008821705054
1	4497	448.175542735543	0.008821705054
1	4502	449.115480657564	0.008821705054
1	4507	449.507232815623	0.008821705054
1	4512	450.132020617609	0.008821705054
1	4517	450.561692415581	0.008821705054
1	4522	451.832075663891	0.008821705054
1	4527	452.572990747193	0.008821705054
1	4532	452.669864296486	0.008821705054
1	4537	455.243727445834	0.008821705054
1	4542	455.897964215802	0.008821705054
1	4547	457.275556869804	0.008821705054
1	4552	457.314599847418	0.008821705054
1	4557	457.384351088267	0.008821705054
1	4562	457.6182523468	0.008821705054
1	4568	458.770693831795	0.008821705054
1	4573	459.404211237763	0.008821705054
1	4578	459.644793303891	0.008821705054
1	4583	460.42531788958	0.008821705054
1	4588	461.011822833645	0.008821705054
1	4593	461.220253130646	0.008821705054
1	4598	461.751813099883	0.008821705054
1	4603	462.723878858519	0.008821705054
1	4608	463.279404705328	0.008821705054
1	4613	463.314520175668	0.008821705054
1	4618	463.867829274871	0.008821705054
1	4623	464.487810298188	0.008821705054
1	4628	464.573891458309	0.008821705054
1	4633	464.815949440342	0.008821705054
1	4638	465.176510266899	0.008821705054
1	4643	466.551998878415	0.008821705054
1	4648	467.045985788861	0.008821705054
1	4653	467.696417664402	0.008821705054
1	4658	467.977339508203	0.008821705054
1	4663	468.913229453154	0.008821705054
1	4668	469.144028369014	0.008821705054
1	4673	469.504082986519	0.008821705054
1	4678	471.100390137878	0.008821705054
1	4683	471.28278373105	0.008821705054
1	4688	472.455585627306	0.008821705054
1	4693	472.599571998292	0.008821705054
1	4698	472.652896708425	0.008821705054
1	4703	474.017579947875	0.008821705054
1	4708	474.896985935414	0.008821705054
1	4713	475.397208604061	0.008821705054
1	4718	476.299371079566	0.008821705054
1	4723	477.112351679479	0.008821705054
1	4728	477.221353061167	0.008821705054
1	4733	477.31540944182	0.008821705054
1	4738	477.440721258886	0.008821705054
1	4743	478.169485340145	0.008821705054
1	4748	478.430251206308	0.008821705054
1	4753	479.000396854986	0.008821705054
1	4758	479.030952019828	0.008821705054
1	4763	479.220701382621	0.008821705054
1	4768	479.360948304424	0.008821705054
1	4773	479.518666539819	0.008821705054
1	4778	479.545239326455	0.008821705054
1	4783	480.658426893953	0.008821705054
1	4788	480.731939442569	0.008821705054
1	4793	480.767237726964	0.008821705054
1	4798	481.765872166775	0.008821705054
1	4803	482.833781778394	0.008821705054
1	4808	483.288558562015	0.008821705054
1	4813	483.472430430625	0.008821705054
1	4818	484.02883000781	0.008821705054
1	4823	485.591356915225	0.008821705054
1	4828	485.83859626905	0.008821705054
1	4833	488.67731784851	0.008821705054
1	4838	488.916966856694	0.008821705054
1	4843	490.143130745982	0.008821705054
1	4848	490.750286173936	0.008821705054
1	4853	491.07588555113	0.008821705054
1	4858	491.246223868222	0.008821705054
1	4863	491.44923081134	0.008821705054
1	4868	492.797521890029	0.008821705054
1	4873	493.292050822159	0.008821705054
1	4878	493.860680021674	0.008821705054
1	4883	493.914921987296	0.008821705054
1	4888	495.051379323669	0.008821705054
1	4893	495.816923340882	0.008821705054
1	4898	497.024681985919	0.008821705054
1	4903	497.394677315953	0.008821705054
1	4908	497.80976631685	0.008821705054
1	4913	498.052251383689	0.008821705054
1	4921	498.19032378267	0.043210769168
1	4924	498.199145487724	0.043239479952
1	4929	498.776921455054	0.008821705054
1	4934	499.446517639935	0.008821705054
1	4939	500.058995285648	0.008821705054
1	4944	500.917177015396	0.008821705054
1	4949	501.155209767853	0.008821705054
1	4954	501.191695670151	0.008821705054
1	4959	501.40921635237	0.008821705054
1	4964	501.708081448018	0.008821705054
1	4969	501.80329604493	0.008821705054
1	4974	502.591535108238	0.008821705054
1	4979	502.602933747098	0.008821705054
1	4984	503.394805017521	0.008821705054
1	4989	503.836547415799	0.008821705054
1	4994	504.039695179066	0.008821705054
1	4999	504.948188540681	0.008821705054
1	5004	506.535109617477	0.008821705054
1	5009	506.591694461436	0.008821705054
1	5014	507.101453252476	0.008821705054
1	5019	507.319128889396	0.008821705054
1	5024	507.367752851994	0.008821705054
1	5029	507.655927250281	0.008821705054
1	5034	507.678680692331	0.008821705054
1	5039	507.986945832116	0.008821705054
1	5044	508.667287867899	0.008821705054
1	5049	508.962348373931	0.008821705054
1	5054	508.975539347735	0.008821705054
1	5059	509.477443684513	0.008821705054
1	5064	510.167779322005	0.008821705054
1	5069	510.771473539016	0.008821705054
1	5074	511.163496359327	0.008821705054
1	5079	511.560197115265	0.008821705054
1	5084	512.043764205918	0.008821705054
1	5089	512.362793280086	0.008821705054
1	5094	512.600718730009	0.008821705054
1	5099	512.629022905676	0.008821705054
1	5104	513.286542099337	0.008821705054
1	5109	513.459361255386	0.008821705054
1	5114	513.846111119694	0.008821705054
1	5119	514.486931999712	0.008821705054
1	5124	515.281601304592	0.008821705054
1	5129	515.46675980145	0.008821705054
1	5134	516.700661843811	0.008821705054
1	5139	516.714978734325	0.008821705054
1	5144	517.934506631059	0.008821705054
1	5149	518.267201329722	0.008821705054
1	5154	518.764800703198	0.008821705054
1	5159	519.186756805448	0.008821705054
1	5164	519.471622210539	0.008821705054
1	5169	520.176735440282	0.008821705054
1	5174	521.439021284122	0.008821705054
1	5179	521.653232598646	0.008821705054
1	5184	522.83777901135	0.008821705054
1	5189	523.058021743432	0.008821705054
1	5194	523.592102791256	0.008821705054
1	5199	523.885075679215	0.008821705054
1	5204	524.277651063748	0.008821705054
1	5209	524.643054078212	0.008821705054
1	5214	526.330920679309	0.008821705054
1	5219	527.403853464587	0.008821705054
1	5224	527.74521519693	0.008821705054
1	5229	528.75673418157	0.008821705054
1	5234	528.94948476093	0.008821705054
1	5239	529.276954247555	0.008821705054
1	5244	529.327000087022	0.008821705054
1	5249	529.576556437368	0.008821705054
1	5254	530.077001153399	0.008821705054
1	5259	530.218873005308	0.008821705054
1	5264	531.303456868898	0.008821705054
1	5270	533.220380998188	0.008821705054
1	5275	533.249554337995	0.008821705054
1	5280	533.366846203484	0.008821705054
1	5285	533.783078997724	0.008821705054
1	5290	536.525874673771	0.008821705054
1	5295	536.698656623023	0.008821705054
1	5300	537.111570378937	0.008821705054
1	5305	539.486418283819	0.008821705054
1	5310	540.755118864087	0.008821705054
1	5315	541.126458615638	0.008821705054
1	5320	541.649364499817	0.008821705054
1	5325	541.880225194391	0.008821705054
1	5330	542.132404397049	0.008821705054
1	5335	543.402864704127	0.008821705054
1	5340	543.893734925384	0.008821705054
1	5345	544.39651586379	0.008821705054
1	5350	544.674778089619	0.008821705054
1	5355	544.690046207208	0.008821705054
1	5360	546.55503083728	0.008821705054
1	5365	546.635008109778	0.008821705054
1	5372	547.067042056849	0.008821705054
1	5375	547.075863761903	0.011670445363
1	5380	547.531154499395	0.008821705054
1	5385	547.704961082477	0.008821705054
1	5390	548.409746991514	0.008821705054
1	5395	548.448384483083	0.008821705054
1	5400	549.003138050635	0.008821705054
1	5405	549.561997642189	0.008821705054
1	5410	550.169874212885	0.008821705054
1	5415	550.191954104838	0.008821705054
1	5420	550.49554023202	0.008821705054
1	5425	550.768775457322	0.008821705054
1	5430	550.962174410768	0.008821705054
1	5435	551.393940693222	0.008821705054
1	5440	551.525172870763	0.008821705054
1	5445	551.577571837771	0.008821705054
1	5450	552.11332343653	0.008821705054
1	5455	552.970675668387	0.008821705054
1	5460	553.38607612352	0.008821705054
1	5465	554.021310332204	0.008821705054
1	5470	554.977089925468	0.008821705054
1	5475	555.273858938115	0.008821705054
1	5480	556.142608397018	0.008821705054
1	5485	556.89283103044	0.008821705054
1	5490	557.095528328251	0.008821705054
1	5495	557.84223111863	0.008821705054
1	5500	558.042336292771	0.008821705054
1	5505	558.310657118917	0.008821705054
1	5510	558.503490321144	0.008821705054
1	5515	558.605047877539	0.008821705054
1	5520	558.764720397644	0.008821705054
1	5525	558.875272324749	0.008821705054
1	5530	559.046798448017	0.008821705054
1	5535	559.871794572607	0.008821705054
1	5540	560.125557222616	0.008821705054
1	5545	560.644424159175	0.008821705054
1	5550	561.240461417821	0.008821705054
1	5555	561.423630376129	0.008821705054
1	5560	562.089622721619	0.008821705054
1	5565	562.475075991596	0.008821705054
1	5570	562.663637441361	0.008821705054
1	5575	563.278275190758	0.008821705054
1	5580	563.624966700613	0.008821705054
1	5585	564.010423912072	0.008821705054
1	5590	564.432221575669	0.008821705054
1	5595	564.786606895674	0.008821705054
1	5600	566.429124487106	0.008821705054
1	5605	568.078421098417	0.008821705054
1	5610	568.476980330997	0.008821705054
1	5615	568.507660393897	0.008821705054
1	5621	568.844529412311	0.008821705054
1	5626	568.999549781934	0.008821705054
1	5631	569.287830477036	0.008821705054
1	5636	570.060632929551	0.008821705054
1	5641	572.2610648883	0.008821705054
1	5646	572.839744044503	0.008821705054
1	5651	573.122928759521	0.008821705054
1	5656	574.074402696419	0.008821705054
1	5661	575.122799601077	0.008821705054
1	5666	576.417380861094	0.008821705054
1	5671	577.375735139688	0.008821705054
1	5676	578.04657326351	0.008821705054
1	5681	578.182427887971	0.008821705054
1	5686	578.193357771925	0.008821705054
1	5691	578.266973376387	0.008821705054
1	5696	579.520759279632	0.008821705054
1	5701	579.676477548744	0.008821705054
1	5706	580.526301736728	0.008821705054
1	5711	580.678863929001	0.008821705054
1	5716	580.691234284789	0.008821705054
1	5721	580.996715081444	0.008821705054
1	5726	581.12714780968	0.008821705054
1	5731	582.728914521185	0.008821705054
1	5736	583.093485234027	0.008821705054
1	5741	584.122615967204	0.008821705054
1	5746	584.520318872941	0.008821705054
1	5751	584.735956511375	0.008821705054
1	5758	585.77366604937	0.008821705054
1	5761	585.782487754424	0.015199715065
1	5766	586.716871923567	0.008821705054
1	5771	587.857142522362	0.008821705054
1	5776	588.134504811227	0.008821705054
1	5781	588.457355858113	0.008821705054
1	5786	588.705697468799	0.008821705054
1	5791	589.775704808697	0.008821705054
1	5796	589.86374139238	0.008821705054
1	5801	590.879801105019	0.008821705054
1	5806	591.246676563912	0.008821705054
1	5811	591.39861224283	0.008821705054
1	5816	592.198811439148	0.008821705054
1	5821	592.501509977919	0.008821705054
1	5826	593.458749984716	0.008821705054
1	5831	593.627004386923	0.008821705054
1	5836	594.047659486173	0.008821705054
1	5841	594.0807492645	0.008821705054
1	5846	594.162339313889	0.008821705054
1	5851	595.780959462115	0.008821705054
1	5856	596.576479649399	0.008821705054
1	5861	596.689656116026	0.008821705054
1	5866	596.950297108299	0.008821705054
1	5871	597.855654073191	0.008821705054
1	5876	598.521436441152	0.008821705054
1	5881	599.243383473935	0.008821705054
1	5886	599.895107891415	0.008821705054
1	5891	600.425247188141	0.008821705054
1	5896	600.533351722758	0.008821705054
1	5901	601.14205780964	0.008821705054
1	5906	601.181005781755	0.008821705054
1	5911	601.884990201277	0.008821705054
1	5916	602.246067477116	0.008821705054
1	5921	602.400861734709	0.008821705054
1	5926	603.087776190608	0.008821705054
1	5931	603.86377412307	0.008821705054
1	5936	603.886040070966	0.008821705054
1	5941	604.332998455208	0.008821705054
1	5946	604.536224192953	0.008821705054
1	5951	607.819767016719	0.008821705054
1	5956	607.940349183946	0.008821705054
1	5961	608.107979822116	0.008821705054
1	5966	609.655087105552	0.008821705054
1	5972	609.88217436939	0.008821705054
1	5977	610.169906815685	0.008821705054
1	5982	610.2572017837	0.008821705054
1	5987	611.047307199916	0.008821705054
1	5992	611.598005582985	0.008821705054
1	5997	612.720241687872	0.008821705054
1	6002	613.206594546497	0.008821705054
1	6007	613.268396583082	0.008821705054
1	6012	613.323755389319	0.008821705054
1	6017	616.414257243833	0.008821705054
1	6022	616.803177912054	0.008821705054
1	6027	617.196536721998	0.008821705054
1	6032	617.771673931044	0.008821705054
1	6037	618.62218944713	0.008821705054
1	6042	618.90449462521	0.008821705054
1	6047	618.994533706263	0.008821705054
1	6052	619.674593114348	0.008821705054
1	6059	620.341236482574	0.008821705054
1	6062	620.350058187628	0.012233948665
1	6067	620.846356457005	0.008821705054
1	6072	622.084114706833	0.008821705054
1	6077	622.149842851109	0.008821705054
1	6082	622.54179179307	0.008821705054
1	6087	622.556175986307	0.008821705054
1	6092	622.726603243662	0.008821705054
1	6097	623.302370549102	0.008821705054
1	6102	623.552734371675	0.008821705054
1	6107	624.382008101942	0.008821705054
1	6112	625.458724013194	0.008821705054
1	6117	625.769852054185	0.008821705054
1	6122	626.076006117461	0.008821705054
1	6127	626.537469313395	0.008821705054
1	6132	626.807095755325	0.008821705054
1	6137	626.841614775436	0.008821705054
1	6142	627.081603797289	0.008821705054
1	6147	627.255954294527	0.008821705054
1	6152	627.607361948123	0.008821705054
1	6157	627.617792961787	0.008821705054
1	6162	628.106609035865	0.008821705054
1	6167	628.174764490646	0.008821705054
1	6172	628.803207470168	0.008821705054
1	6177	629.22267084468	0.008821705054
1	6182	630.759558048468	0.008821705054
1	6187	631.14918014611	0.008821705054
1	6192	631.313460178123	0.008821705054
1	6197	631.433348246383	0.008821705054
1	6202	633.692489364047	0.008821705054
1	6207	634.412413590306	0.008821705054
1	6212	635.093600583497	0.008821705054
1	6217	635.651721462954	0.008821705054
1	6222	637.122327661691	0.008821705054
1	6227	637.696695184693	0.008821705054
1	6232	637.819053913857	0.008821705054
1	6237	637.897112336905	0.008821705054
1	6242	640.061028101519	0.008821705054
1	6247	640.550563946346	0.008821705054
1	6252	641.116844318509	0.008821705054
1	6257	641.583399272305	0.008821705054
1	6262	641.774919486632	0.008821705054
1	6267	641.988046261911	0.008821705054
1	6272	642.031695541551	0.008821705054
1	6277	642.584910366974	0.008821705054
1	6282	642.978005419081	0.008821705054
1	6287	644.50028418204	0.008821705054
1	6292	646.966347866921	0.008821705054
1	6297	647.547657801383	0.008821705054
1	6302	647.777691100562	0.008821705054
1	6307	648.664822436466	0.008821705054
1	6312	649.083464325501	0.008821705054
1	6317	649.114591993336	0.008821705054
1	6323	649.252664392317	0.10184359043
1	6328	649.57822384675	0.008821705054
1	6333	649.623676784678	0.008821705054
1	6338	649.8438292495	0.008821705054
1	6343	650.330612932663	0.008821705054
1	6348	650.53020747011	0.008821705054
1	6353	651.470865241612	0.008821705054
1	6358	651.989421493465	0.008821705054
1	6363	652.026570597005	0.008821705054
1	6368	652.073991639248	0.008821705054
1	6373	652.198859790015	0.008821705054
1	6378	652.650326900292	0.008821705054
1	6383	652.729263184961	0.008821705054
1	6388	653.362217905281	0.008821705054
1	6393	653.631622440051	0.008821705054
1	6398	654.716874776401	0.008821705054
1	6403	656.175467506716	0.008821705054
1	6408	656.412972024072	0.008821705054
1	6413	656.598767041458	0.008821705054
1	6418	656.785640261714	0.008821705054
1	6423	656.873005583079	0.008821705054
1	6428	657.25185591983	0.008821705054
1	6433	657.342440454984	0.008821705054
1	6438	657.743640438848	0.008821705054
1	6443	658.249093554042	0.008821705054
1	6448	659.105855523179	0.008821705054
1	6453	659.482382609828	0.008821705054
1	6458	660.12087952236	0.008821705054
1	6463	661.512790541558	0.008821705054
1	6468	661.602183285184	0.008821705054
1	6473	662.889120225387	0.008821705054
1	6478	663.022635647415	0.008821705054
1	6483	663.849497431399	0.008821705054
1	6488	664.019010967597	0.008821705054
1	6493	664.228938678575	0.008821705054
1	6498	664.301879439488	0.008821705054
1	6503	664.747532633657	0.008821705054
1	6508	664.861284892021	0.008821705054
1	6513	665.507610412374	0.008821705054
1	6518	666.400753904097	0.008821705054
1	6523	666.55790649904	0.008821705054
1	6528	667.377136530548	0.008821705054
1	6533	667.862846371218	0.008821705054
1	6538	667.900419760351	0.008821705054
1	6543	668.775498042411	0.008821705054
1	6548	668.915635537921	0.008821705054
1	6553	668.93750640111	0.008821705054
1	6558	669.271284257821	0.008821705054
1	6563	669.916991379266	0.008821705054
1	6568	671.171598759309	0.008821705054
1	6573	671.24144528851	0.008821705054
1	6578	671.502030618093	0.008821705054
1	6583	671.873469305637	0.008821705054
1	6588	671.928371824043	0.008821705054
1	6593	672.222305483084	0.008821705054
1	6598	672.943734920602	0.008821705054
1	6603	674.306771901342	0.008821705054
1	6608	674.34612481548	0.008821705054
1	6613	674.689289707808	0.008821705054
1	6618	674.800001127441	0.008821705054
1	6623	675.061427715251	0.008821705054
1	6630	676.726299987285	0.008821705054
1	6633	676.735121692339	0.013573844562
1	6638	677.36226506395	0.008821705054
1	6643	677.535412236195	0.008821705054
1	6648	677.74560316157	0.008821705054
1	6653	678.064221456062	0.008821705054
1	6658	678.553173545695	0.008821705054
1	6663	678.906037601142	0.008821705054
1	6668	679.167057978551	0.008821705054
1	6674	679.639216609085	0.008821705054
1	6679	679.937624371023	0.008821705054
1	6684	680.220664297924	0.008821705054
1	6689	680.844228831923	0.008821705054
1	6694	682.813811299101	0.008821705054
1	6699	683.160804926935	0.008821705054
1	6704	683.37259278635	0.008821705054
1	6709	683.567762203426	0.008821705054
1	6714	684.250996779768	0.008821705054
1	6719	686.060432807973	0.008821705054
1	6724	686.213817397836	0.008821705054
1	6729	687.15567190295	0.008821705054
1	6734	687.250093642097	0.008821705054
1	6739	687.447985573871	0.008821705054
1	6744	687.517586393659	0.008821705054
1	6749	689.670249665875	0.008821705054
1	6754	689.76428631457	0.008821705054
1	6759	689.898881678041	0.008821705054
1	6764	690.455727552578	0.008821705054
1	6769	690.924703106882	0.008821705054
1	6774	691.27017394599	0.008821705054
1	6779	691.636144413076	0.008821705054
1	6784	691.842941141289	0.008821705054
1	6789	692.299665353953	0.008821705054
1	6794	692.394577790648	0.008821705054
1	6799	692.744551675515	0.008821705054
1	6804	693.459187809671	0.008821705054
1	6809	693.744772035287	0.008821705054
1	6814	694.40523041028	0.008821705054
1	6819	695.033224531133	0.008821705054
1	6824	695.77487363652	0.008821705054
1	6829	695.903125031955	0.008821705054
1	6834	696.858805028763	0.008821705054
1	6839	697.748014869229	0.008821705054
1	6844	700.361313397276	0.008821705054
1	6849	702.094553114361	0.008821705054
1	6854	702.10825603621	0.008821705054
1	6859	702.37783853526	0.008821705054
1	6864	702.48176650379	0.008821705054
1	6869	702.528208441296	0.008821705054
1	6874	702.808650575533	0.008821705054
1	6879	704.243698036671	0.008821705054
1	6884	704.314053532644	0.008821705054
1	6889	704.474304370866	0.008821705054
1	6894	704.870220022122	0.008821705054
1	6899	705.668459961473	0.008821705054
1	6904	706.132251815618	0.008821705054
1	6909	706.175476433226	0.008821705054
1	6914	707.101488328999	0.008821705054
1	6919	707.371602469886	0.008821705054
1	6924	707.440027864878	0.008821705054
1	6929	707.864885928811	0.008821705054
1	6934	708.221744319222	0.008821705054
1	6939	708.300110246424	0.008821705054
1	6944	708.590153081172	0.008821705054
1	6949	709.578936465393	0.008821705054
1	6954	709.962015482397	0.008821705054
1	6959	710.056399167634	0.008821705054
1	6964	711.090524360731	0.008821705054
1	6969	711.920776568405	0.008821705054
1	6974	712.53974032587	0.008821705054
1	6979	712.965450190957	0.008821705054
1	6984	713.324230039783	0.008821705054
1	6989	713.495001593534	0.008821705054
1	6994	714.146332455409	0.008821705054
1	6999	714.9161048059	0.008821705054
1	7004	715.152843044611	0.008821705054
1	7009	715.41553712082	0.008821705054
1	7014	715.471847617717	0.008821705054
1	7019	715.919959421649	0.008821705054
1	7025	716.279848692326	0.008821705054
1	7030	716.460689310082	0.008821705054
1	7035	716.543496156068	0.008821705054
1	7040	716.759620133157	0.008821705054
1	7045	717.395505606419	0.008821705054
1	7050	718.633526266518	0.008821705054
1	7055	718.78488145344	0.008821705054
1	7062	719.045867322348	0.008821705054
1	7065	719.054689027402	0.017184819427
1	7070	721.156561707182	0.008821705054
1	7075	721.180403741371	0.008821705054
1	7080	721.400771345053	0.008821705054
1	7085	721.703298551202	0.008821705054
1	7090	722.190479927198	0.008821705054
1	7095	722.89149920103	0.008821705054
1	7100	723.178264728821	0.008821705054
1	7105	723.204331525691	0.008821705054
1	7110	723.53948491335	0.008821705054
1	7115	723.793814809933	0.008821705054
1	7120	723.899551966603	0.008821705054
1	7125	725.664142946168	0.008821705054
1	7130	725.77681033941	0.008821705054
1	7135	726.231752566935	0.008821705054
1	7140	726.835483140786	0.008821705054
1	7145	727.542135460827	0.008821705054
1	7152	727.583273398149	0.008821705054
1	7155	727.592095103203	0.014110517815
1	7160	728.544693636501	0.008821705054
1	7165	728.584271567005	0.008821705054
1	7170	728.915421160761	0.008821705054
1	7175	729.369853784191	0.008821705054
1	7180	729.380940498419	0.008821705054
1	7185	729.398585529096	0.008821705054
1	7190	729.541085494022	0.008821705054
1	7195	731.069404638183	0.008821705054
1	7200	732.013467972302	0.008821705054
1	7205	732.304619462217	0.008821705054
1	7210	732.352436915721	0.008821705054
1	7215	732.508122053393	0.008821705054
1	7220	733.267075091794	0.008821705054
1	7225	733.49582475728	0.008821705054
1	7230	734.129844759882	0.008821705054
1	7235	734.339281044105	0.008821705054
1	7240	734.380515419677	0.008821705054
1	7245	735.002990784739	0.008821705054
1	7250	735.777624279037	0.008821705054
1	7255	736.577692871922	0.008821705054
1	7260	738.132404691131	0.008821705054
1	7265	738.491182169148	0.008821705054
1	7270	738.605187898165	0.008821705054
1	7275	738.672739406391	0.008821705054
1	7280	739.167888686142	0.008821705054
1	7285	739.419843844683	0.008821705054
1	7292	739.609626255883	0.008821705054
1	7295	739.618447960937	0.015933299828
1	7300	740.072574453431	0.008821705054
1	7305	740.35587390842	0.008821705054
1	7310	740.909972529449	0.008821705054
1	7315	741.698238416077	0.008821705054
1	7320	741.86877460912	0.008821705054
1	7325	742.050546287773	0.008821705054
1	7330	742.376755387841	0.008821705054
1	7335	744.133580310381	0.008821705054
1	7340	744.44963658589	0.008821705054
1	7345	745.816343451773	0.008821705054
1	7350	746.529224654261	0.008821705054
1	7355	746.665586583208	0.008821705054
1	7360	747.274750113832	0.008821705054
1	7365	748.022910422008	0.008821705054
1	7370	748.204641750946	0.008821705054
1	7376	748.342714149927	0.039367004472
1	7381	748.415131019505	0.008821705054
1	7386	749.594690195062	0.008821705054
1	7391	750.353262315396	0.008821705054
1	7396	750.774986769501	0.008821705054
1	7401	750.838254980324	0.008821705054
1	7406	751.718109624836	0.008821705054
1	7411	753.514718191072	0.008821705054
1	7416	755.002094377131	0.008821705054
1	7421	757.049701366882	0.008821705054
1	7426	757.307284928657	0.008821705054
1	7431	757.644251049693	0.008821705054
1	7436	759.141236019065	0.008821705054
1	7441	759.662274519503	0.008821705054
1	7446	760.32128717609	0.008821705054
1	7451	761.194605924326	0.008821705054
1	7456	762.612582641804	0.008821705054
1	7461	762.840482007057	0.008821705054
1	7466	763.640003091225	0.008821705054
1	7471	764.371621652269	0.008821705054
1	7476	764.746077454872	0.008821705054
1	7481	764.929216780957	0.008821705054
1	7486	765.374718342132	0.008821705054
1	7491	767.355786428553	0.008821705054
1	7496	767.384484647118	0.008821705054
1	7501	768.388847939219	0.008821705054
1	7506	770.30519896115	0.008821705054
1	7511	770.44793115944	0.008821705054
1	7516	770.684296015757	0.008821705054
1	7521	771.2258840769	0.008821705054
1	7526	771.74513426461	0.008821705054
1	7531	772.46709485611	0.008821705054
1	7536	772.741951040521	0.008821705054
1	7541	772.814721968941	0.008821705054
1	7546	772.857677174503	0.008821705054
1	7551	773.655792270322	0.008821705054
1	7556	773.744576009159	0.008821705054
1	7561	773.827004902934	0.008821705054
1	7566	774.263607922623	0.008821705054
1	7571	774.540958680181	0.008821705054
1	7576	774.68809603663	0.008821705054
1	7581	774.800974277559	0.008821705054
1	7586	775.405059192921	0.008821705054
1	7591	775.478983794561	0.008821705054
1	7596	775.681493004837	0.008821705054
1	7601	775.911784790821	0.008821705054
1	7606	776.239050000756	0.008821705054
1	7611	776.388590403128	0.008821705054
1	7616	776.674166648846	0.008821705054
1	7621	777.929719549905	0.008821705054
1	7626	777.991338215958	0.008821705054
1	7631	778.70068356526	0.008821705054
1	7636	779.226189542814	0.008821705054
1	7641	779.363090593245	0.008821705054
1	7646	779.529885899366	0.008821705054
1	7651	779.7253137535	0.008821705054
1	7656	780.289039753017	0.008821705054
1	7661	780.564176367992	0.008821705054
1	7666	780.586304163782	0.008821705054
1	7671	780.704727057501	0.008821705054
1	7676	782.12047587237	0.008821705054
1	7681	782.344189733589	0.008821705054
1	7686	782.601855002148	0.008821705054
1	7691	783.146915122167	0.008821705054
1	7696	783.567795253777	0.008821705054
1	7701	783.817180063796	0.008821705054
1	7706	784.432263135119	0.008821705054
1	7711	784.444224091206	0.008821705054
1	7716	784.578965317394	0.008821705054
1	7721	785.777852074615	0.008821705054
1	7729	786.163272531238	0.008821705054
1	7732	786.172094236292	0.012774254111
1	7737	786.60278333163	0.008821705054
1	7742	786.796196736328	0.008821705054
1	7747	787.190255058673	0.008821705054
1	7752	787.965199281846	0.008821705054
1	7757	788.033915788411	0.008821705054
1	7762	788.047374364947	0.008821705054
1	7767	788.221690313339	0.008821705054
1	7772	788.512176387803	0.008821705054
1	7777	788.710160482567	0.008821705054
1	7782	789.498352723269	0.008821705054
1	7787	790.356971543855	0.008821705054
1	7792	790.491864424678	0.008821705054
1	7797	791.003921612625	0.008821705054
1	7802	791.498285891016	0.008821705054
1	7807	791.731604787939	0.008821705054
1	7812	793.158455498712	0.008821705054
1	7817	793.397880402452	0.008821705054
1	7822	793.655400569913	0.008821705054
1	7827	793.75263774265	0.008821705054
1	7832	794.290681154947	0.008821705054
1	7837	794.628216661818	0.008821705054
1	7842	794.669770011635	0.008821705054
1	7847	794.864605594178	0.008821705054
1	7852	794.890638721465	0.008821705054
1	7857	794.979923117356	0.008821705054
1	7862	794.991683043744	0.008821705054
1	7867	795.361581842376	0.008821705054
1	7872	795.763784327453	0.008821705054
1	7877	795.993170448434	0.008821705054
1	7882	797.581980240303	0.008821705054
1	7887	798.207348037688	0.008821705054
1	7892	798.227999627998	0.008821705054
1	7897	798.272536599364	0.008821705054
1	7902	798.308747049057	0.008821705054
1	7907	798.843484446297	0.008821705054
1	7912	799.244843771552	0.008821705054
1	7917	800.080141395406	0.008821705054
1	7922	800.377522356933	0.008821705054
1	7927	800.953726725593	0.008821705054
1	7932	801.537645819334	0.008821705054
1	7937	802.012352810152	0.008821705054
1	7942	802.917771360226	0.008821705054
1	7947	804.049886234539	0.008821705054
1	7952	804.366533981312	0.008821705054
1	7957	805.452032012083	0.008821705054
1	7962	805.726760196241	0.008821705054
1	7967	805.751082644661	0.008821705054
1	7972	806.983225466249	0.008821705054
1	7977	807.368101722247	0.008821705054
1	7982	807.382346238021	0.008821705054
1	7987	807.499092153588	0.008821705054
1	7992	807.510893156205	0.008821705054
1	7997	807.806063894825	0.008821705054
1	8002	809.253480393452	0.008821705054
1	8007	809.477898930212	0.008821705054
1	8012	809.610356552037	0.008821705054
1	8017	809.736255356874	0.008821705054
1	8022	810.401044586863	0.008821705054
1	8027	811.791691321208	0.008821705054
1	8032	813.300539880943	0.008821705054
1	8037	814.875590031815	0.008821705054
1	8042	815.054288651431	0.008821705054
1	8047	815.530148531565	0.008821705054
1	8052	815.617599415097	0.008821705054
1	8057	815.722794828453	0.008821705054
1	8062	817.268741856858	0.008821705054
1	8067	817.431821964296	0.008821705054
1	8072	817.76917756202	0.008821705054
1	8080	817.907249961001	0.109454858606
1	8083	817.916071666055	0.045246034911
1	8088	817.932879790038	0.008821705054
1	8093	819.464510622141	0.008821705054
1	8098	820.2618092325	0.008821705054
1	8103	820.54626059517	0.008821705054
1	8108	821.585574230924	0.008821705054
1	8113	821.807667719758	0.008821705054
1	8118	822.09979489191	0.008821705054
1	8123	822.378801824334	0.008821705054
1	8128	822.98731080458	0.008821705054
1	8133	823.626882103874	0.008821705054
1	8138	823.649257056435	0.008821705054
1	8145	825.800541022944	0.008821705054
1	8148	825.809362727998	0.010437833643
1	8153	825.918781864658	0.008821705054
1	8158	826.226470430583	0.008821705054
1	8163	826.450439927639	0.008821705054
1	8168	826.626764531005	0.008821705054
1	8173	826.712948105831	0.008821705054
1	8178	826.84502353397	0.008821705054
1	8183	827.290585832904	0.008821705054
1	8188	828.197491290502	0.008821705054
1	8193	828.328025672079	0.008821705054
1	8198	829.497505930121	0.008821705054
1	8203	833.69585964565	0.008821705054
1	8208	833.911177559768	0.008821705054
1	8213	835.242849615506	0.008821705054
1	8218	835.685712441541	0.008821705054
1	8225	837.644758523602	0.008821705054
1	8228	837.653580228656	0.016971899093
1	8233	838.179616906251	0.008821705054
1	8238	838.597307487832	0.008821705054
1	8243	838.688964225747	0.008821705054
1	8248	839.701527714159	0.008821705054
1	8253	839.757392133655	0.008821705054
1	8258	840.171646283562	0.008821705054
1	8263	840.189116873769	0.008821705054
1	8268	840.239793388431	0.008821705054
1	8273	840.983313046687	0.008821705054
1	8278	841.934554910723	0.008821705054
1	8283	841.964249445745	0.008821705054
1	8288	842.131753855815	0.008821705054
1	8293	842.632630903321	0.008821705054
1	8298	842.654385159509	0.008821705054
1	8303	842.915566966293	0.008821705054
1	8308	843.036956933179	0.008821705054
1	8313	843.057942058344	0.008821705054
1	8318	843.572355975652	0.008821705054
1	8323	843.867861438441	0.008821705054
1	8328	844.075721201518	0.008821705054
1	8333	844.759731096009	0.008821705054
1	8338	845.729199867136	0.008821705054
1	8343	845.91575177133	0.008821705054
1	8348	846.835914573135	0.008821705054
1	8353	846.871483772592	0.008821705054
1	8358	846.993619792928	0.008821705054
1	8363	847.219977055309	0.008821705054
1	8368	848.864127797946	0.008821705054
1	8373	848.916848285406	0.008821705054
1	8378	849.396671930532	0.008821705054
1	8383	849.587581796929	0.008821705054
1	8388	850.19038417102	0.008821705054
1	8393	850.962795145419	0.008821705054
1	8398	851.077559401203	0.008821705054
1	8403	851.403275507558	0.008821705054
1	8408	851.678823755626	0.008821705054
1	8413	852.592037440001	0.008821705054
1	8418	854.352374995778	0.008821705054
1	8423	854.385321803485	0.008821705054
1	8429	856.306638319624	0.008821705054
1	8434	857.186198952132	0.008821705054
1	8439	857.790717270329	0.008821705054
1	8444	858.091881935185	0.008821705054
1	8449	858.320343303138	0.008821705054
1	8454	858.395519008895	0.008821705054
1	8459	858.433572302539	0.008821705054
1	8464	859.034588709356	0.008821705054
1	8469	859.731678052059	0.008821705054
1	8474	860.36074769876	0.008821705054
1	8479	861.577949930351	0.008821705054
1	8484	861.680976291942	0.008821705054
1	8489	861.863295841405	0.008821705054
1	8494	862.375738045928	0.008821705054
1	8499	862.735045837282	0.008821705054
1	8504	863.506263914749	0.008821705054
1	8509	863.747457294869	0.008821705054
1	8514	864.446642746106	0.008821705054
1	8519	864.501949605251	0.008821705054
1	8524	866.212630238466	0.008821705054
1	8529	866.48338296463	0.008821705054
1	8534	866.65601558708	0.008821705054
1	8539	866.81814513135	0.008821705054
1	8544	867.268377873792	0.008821705054
1	8549	867.425904519783	0.008821705054
1	8554	868.458118430645	0.008821705054
1	8559	868.904359140521	0.008821705054
1	8564	870.476014838527	0.008821705054
1	8569	870.727084916895	0.008821705054
1	8574	871.622287850369	0.008821705054
1	8579	872.195232520569	0.008821705054
1	8584	873.747170710545	0.008821705054
1	8589	873.869151122977	0.008821705054
1	8594	874.197584829034	0.008821705054
1	8599	874.607129122273	0.008821705054
1	8604	874.938476808864	0.008821705054
1	8609	876.04993045375	0.008821705054
1	8614	877.237659925523	0.008821705054
1	8619	877.999164216518	0.008821705054
1	8624	879.111868594621	0.008821705054
1	8629	879.340125595511	0.008821705054
1	8634	879.51387842511	0.008821705054
1	8639	880.967222668828	0.008821705054
1	8644	881.22580091251	0.008821705054
1	8649	881.402508713652	0.008821705054
1	8654	881.516225133867	0.008821705054
1	8659	882.070237611338	0.008821705054
1	8664	883.183311011584	0.008821705054
1	8669	883.42517231828	0.008821705054
1	8674	883.584569186586	0.008821705054
1	8679	883.936387845834	0.008821705054
1	8686	884.072246935361	0.008821705054
1	8689	884.081068640415	0.013282025337
1	8694	884.397921991841	0.008821705054
1	8699	884.752243433877	0.008821705054
1	8704	885.328413441342	0.008821705054
1	8709	886.495961616544	0.008821705054
1	8714	886.724946191387	0.008821705054
1	8719	887.269540202657	0.008821705054
1	8724	887.302351860317	0.008821705054
1	8729	887.629102313494	0.008821705054
1	8734	887.813461761192	0.008821705054
1	8739	888.077010839851	0.008821705054
1	8744	888.284674165212	0.008821705054
1	8749	890.661672906575	0.008821705054
1	8754	891.549000658276	0.008821705054
1	8759	891.75033229649	0.008821705054
1	8764	892.018542121732	0.008821705054
1	8769	892.629807744992	0.008821705054
1	8774	894.264889701359	0.008821705054
1	8780	894.754365949974	0.008821705054
1	8785	894.99223292044	0.008821705054
1	8790	896.435124383967	0.008821705054
1	8795	896.508086703177	0.008821705054
1	8800	896.877641743489	0.008821705054
1	8805	896.923008244834	0.008821705054
1	8810	897.035329624607	0.008821705054
1	8815	897.926169922486	0.008821705054
1	8820	898.31080076211	0.008821705054
1	8825	898.610501106152	0.008821705054
1	8830	898.936779523293	0.008821705054
1	8835	899.148901365513	0.008821705054
1	8842	899.325298366174	0.008821705054
1	8845	899.334120071228	0.015622210694
1	8850	899.805527764391	0.008821705054
1	8855	900.267055919072	0.008821705054
1	8860	900.490296381425	0.008821705054
1	8865	901.233751902319	0.008821705054
1	8870	902.062094919339	0.008821705054
1	8875	902.186142059877	0.008821705054
1	8880	902.286211201798	0.008821705054
1	8885	902.502126598747	0.008821705054
1	8890	903.278086242121	0.008821705054
1	8895	904.96062553798	0.008821705054
1	8900	905.042775590388	0.008821705054
1	8905	906.124901176716	0.008821705054
1	8910	906.399363698575	0.008821705054
1	8915	906.900489198194	0.008821705054
1	8920	908.072518814082	0.008821705054
1	8925	908.434677624339	0.008821705054
1	8930	908.566002460047	0.008821705054
1	8935	908.905372003587	0.008821705054
1	8940	909.939905634317	0.008821705054
1	8945	910.338010216057	0.008821705054
1	8950	910.758825027449	0.008821705054
1	8955	911.3264247628	0.008821705054
1	8960	911.573784887944	0.008821705054
1	8965	913.488069923859	0.008821705054
1	8970	913.850223915439	0.008821705054
1	8975	914.185446569729	0.008821705054
1	8980	915.356111927523	0.008821705054
1	8985	915.503771475073	0.008821705054
1	8990	915.590236867159	0.008821705054
1	8995	915.704484809453	0.008821705054
1	9000	916.185136384611	0.008821705054
1	9005	916.235561485323	0.008821705054
1	9010	917.403905749866	0.008821705054
1	9015	917.61107201259	0.008821705054
1	9020	917.788855037852	0.008821705054
1	9025	917.849583311288	0.008821705054
1	9030	918.466523262725	0.008821705054
1	9035	918.512905667635	0.008821705054
1	9040	918.946550090532	0.008821705054
1	9045	919.011742550537	0.008821705054
1	9050	920.014714080129	0.008821705054
1	9055	920.935439100828	0.008821705054
1	9060	922.351932698286	0.008821705054
1	9065	923.34644293409	0.008821705054
1	9070	924.187286541219	0.008821705054
1	9075	924.402067169774	0.008821705054
1	9080	924.633159616347	0.008821705054
1	9085	924.653172164671	0.008821705054
1	9090	924.964899866817	0.008821705054
1	9095	925.555180447081	0.008821705054
1	9100	926.323238321959	0.008821705054
1	9105	926.67643820768	0.008821705054
1	9110	928.288971388023	0.008821705054
1	9115	928.853863517139	0.008821705054
1	9120	929.032517556571	0.008821705054
1	9125	929.225964008839	0.008821705054
1	9131	929.38127558271	0.008821705054
1	9136	929.830010487049	0.008821705054
1	9143	929.868033582654	0.008821705054
1	9146	929.876855287708	0.014981051085
1	9151	932.412987897979	0.008821705054
1	9156	932.540209684684	0.008821705054
1	9161	932.557318940874	0.008821705054
1	9166	932.805363087833	0.008821705054
1	9171	933.06008952309	0.008821705054
1	9176	934.299720941035	0.008821705054
1	9181	934.660611635906	0.008821705054
1	9186	935.063733544278	0.008821705054
1	9191	935.176531976317	0.008821705054
1	9196	935.936860271051	0.008821705054
1	9201	936.223443262215	0.008821705054
1	9206	936.496710997573	0.008821705054
1	9211	936.805808642868	0.008821705054
1	9216	936.846058004097	0.008821705054
1	9221	937.103362106475	0.008821705054
1	9226	937.685209421223	0.008821705054
1	9231	937.935746163723	0.008821705054
1	9236	939.132029792716	0.008821705054
1	9241	939.278358050012	0.008821705054
1	9246	941.03057999411	0.008821705054
1	9251	941.455906000823	0.008821705054
1	9256	941.910936758747	0.008821705054
1	9261	942.499173511372	0.008821705054
1	9266	942.747813162725	0.008821705054
1	9271	942.840025708391	0.008821705054
1	9276	943.646170536781	0.008821705054
1	9281	943.88479550475	0.008821705054
1	9286	944.586779366273	0.008821705054
1	9291	944.618711977186	0.008821705054
1	9296	945.910748611206	0.008821705054
1	9301	946.078947013586	0.008821705054
1	9306	946.292881705984	0.008821705054
1	9311	946.687196538668	0.008821705054
1	9316	947.506645855069	0.008821705054
1	9321	947.902063412575	0.008821705054
1	9326	948.068569255324	0.008821705054
1	9331	948.997350081785	0.008821705054
1	9336	949.241023108669	0.008821705054
1	9341	949.309607531979	0.008821705054
1	9346	949.60882280376	0.008821705054
1	9351	950.178262993884	0.008821705054
1	9356	950.342763075694	0.008821705054
1	9361	950.481758182467	0.008821705054
1	9366	950.517158596553	0.008821705054
1	9373	953.016560960095	0.008821705054
1	9376	953.025382665149	0.012253898248
1	9381	954.170708157959	0.008821705054
1	9386	954.381304602416	0.008821705054
1	9391	955.264885560247	0.008821705054
1	9396	955.383242254364	0.008821705054
1	9401	956.015491182229	0.008821705054
1	9406	957.241504269305	0.008821705054
1	9411	958.817404560969	0.008821705054
1	9416	959.30591806756	0.008821705054
1	9421	960.106555549855	0.008821705054
1	9426	961.536633943247	0.008821705054
1	9431	961.594670039659	0.008821705054
1	9436	963.665132793609	0.008821705054
1	9441	963.787194936148	0.008821705054
1	9446	963.796486201365	0.008821705054
1	9451	963.827614222048	0.008821705054
1	9456	964.692416489331	0.008821705054
1	9461	964.963966427844	0.008821705054
1	9466	965.447197783227	0.008821705054
1	9471	966.187394228865	0.008821705054
1	9476	966.445718355824	0.008821705054
1	9484	966.583790754805	0.116830059048
1	9487	966.592612459859	0.040582580028
1	9492	966.738410844314	0.008821705054
1	9497	967.329059578412	0.008821705054
1	9502	968.68376299397	0.008821705054
1	9507	969.376316152343	0.008821705054
1	9512	970.458160635861	0.008821705054
1	9517	970.61709758696	0.008821705054
1	9522	970.710507983588	0.008821705054
1	9527	971.202495930343	0.008821705054
1	9532	971.415741561475	0.008821705054
1	9537	972.2160121259	0.008821705054
1	9542	972.413363669605	0.008821705054
1	9547	972.716039479165	0.008821705054
1	9552	972.746644484263	0.008821705054
1	9557	974.016965593386	0.008821705054
1	9564	974.397039759661	0.008821705054
1	9567	974.405861464715	0.009381707827
1	9572	974.427760945895	0.008821705054
1	9577	976.437594862839	0.008821705054
1	9582	976.709512035305	0.008821705054
1	9587	976.945635840201	0.008821705054
1	9592	977.755176902362	0.008821705054
1	9597	977.876144829351	0.008821705054
1	9602	978.684374120537	0.008821705054
1	9607	978.925100791669	0.008821705054
1	9612	979.818153607407	0.008821705054
1	9617	979.870203134166	0.008821705054
1	9622	980.0491074006	0.008821705054
1	9627	980.100007553051	0.008821705054
1	9632	980.229831473737	0.008821705054
1	9639	980.327488391442	0.008821705054
1	9642	980.336310096496	0.015441696717
1	9647	980.713361686828	0.008821705054
1	9652	981.612925752457	0.008821705054
1	9657	981.935459026445	0.008821705054
1	9662	982.039848926333	0.008821705054
1	9667	982.45427580186	0.008821705054
1	9672	982.625893222386	0.008821705054
1	9677	983.708965625079	0.008821705054
1	9682	984.759458253956	0.008821705054
1	9687	985.216604809752	0.008821705054
1	9692	985.501162898997	0.008821705054
1	9697	986.677976600613	0.008821705054
1	9702	987.115923889441	0.008821705054
1	9707	987.535383614523	0.008821705054
1	9712	988.082819929733	0.008821705054
1	9717	989.57984805219	0.008821705054
1	9722	989.698969541664	0.008821705054
1	9729	990.633462315997	0.008821705054
1	9732	990.642284021051	0.010681622592
1	9737	991.574226791804	0.008821705054
1	9744	992.163272565263	0.008821705054
1	9747	992.172094270317	0.015597897984
1	9752	992.995999909181	0.008821705054
1	9757	993.184598816236	0.008821705054
1	9762	993.429305820946	0.008821705054
1	9767	994.954447505247	0.008821705054
1	9772	994.963581904348	0.008821705054
1	9777	995.176751897479	0.008821705054
1	9782	996.303821446783	0.008821705054
1	9787	996.406531617654	0.008821705054
1	9792	996.781319352553	0.008821705054
1	9799	996.957446789123	0.008821705054
1	9802	996.966268494177	0.011627468846
1	9807	997.966231940787	0.008821705054
1	9812	998.382268647844	0.008821705054
[...]
7	6287	644.50028418204	0
7	6292	646.966347866921	0
7	6297	647.547657801383	0
7	6302	647.777691100562	0
7	6307	648.664822436466	0
7	6312	649.083464325501	0
7	6317	649.114591993336	0
7	6323	649.252664392317	0
7	6328	649.57822384675	0
7	6333	649.623676784678	0
7	6338	649.8438292495	0
7	6343	650.330612932663	0
7	6348	650.53020747011	0
7	6353	651.470865241612	0
7	6358	651.989421493465	0
7	6363	652.026570597005	0
7	6368	652.073991639248	0
7	6373	652.198859790015	0
7	6378	652.650326900292	0
7	6383	652.729263184961	0
7	6388	653.362217905281	0
7	6393	653.631622440051	0
7	6398	654.716874776401	0
7	6403	656.175467506716	0
7	6408	656.412972024072	0
7	6413	656.598767041458	0
7	6418	656.785640261714	0
7	6423	656.873005583079	0
7	6428	657.25185591983	0
7	6433	657.342440454984	0
7	6438	657.743640438848	0
7	6443	658.249093554042	0
7	6448	659.105855523179	0
7	6453	659.482382609828	0
7	6458	660.12087952236	0
7	6463	661.512790541558	0
7	6468	661.602183285184	0
7	6473	662.889120225387	0
7	6478	663.022635647415	0
7	6483	663.849497431399	0
7	6488	664.019010967597	0
7	6493	664.228938678575	0
7	6498	664.301879439488	0
7	6503	664.747532633657	0
7	6508	664.861284892021	0
7	6513	665.507610412374	0
7	6518	666.400753904097	0
7	6523	666.55790649904	0
7	6528	667.377136530548	0
7	6533	667.862846371218	0
7	6538	667.900419760351	0
7	6543	668.775498042411	0
7	6548	668.915635537921	0
7	6553	668.93750640111	0
7	6558	669.271284257821	0
7	6563	669.916991379266	0
7	6568	671.171598759309	0
7	6573	671.24144528851	0
7	6578	671.502030618093	0
7	6583	671.873469305637	0
7	6588	671.928371824043	0
7	6593	672.222305483084	0
7	6598	672.943734920602	0
7	6603	674.306771901342	0
7	6608	674.34612481548	0
7	6613	674.689289707808	0
7	6618	674.800001127441	0
7	6623	675.061427715251	0
7	6630	676.726299987285	0
7	6633	676.735121692339	0
7	6638	677.36226506395	0
7	6643	677.535412236195	0
7	6648	677.74560316157	0
7	6653	678.064221456062	0
7	6658	678.553173545695	0
7	6663	678.906037601142	0
7	6668	679.167057978551	0
7	6674	679.639216609085	0
7	6679	679.937624371023	0
7	6684	680.220664297924	0
7	6689	680.844228831923	0
7	6694	682.813811299101	0
7	6699	683.160804926935	0
7	6704	683.37259278635	0
7	6709	683.567762203426	0
7	6714	684.250996779768	0
7	6719	686.060432807973	0
7	6724	686.213817397836	0
7	6729	687.15567190295	0
7	6734	687.250093642097	0
7	6739	687.447985573871	0
7	6744	687.517586393659	0
7	6749	689.670249665875	0
7	6754	689.76428631457	0
7	6759	689.898881678041	0
7	6764	690.455727552578	0
7	6769	690.924703106882	0
7	6774	691.27017394599	0
7	6779	691.636144413076	0
7	6784	691.842941141289	0
7	6789	692.299665353953	0
7	6794	692.394577790648	0
7	6799	692.744551675515	0
7	6804	693.459187809671	0
7	6809	693.744772035287	0
7	6814	694.40523041028	0
7	6819	695.033224531133	0
7	6824	695.77487363652	0
7	6829	695.903125031955	0
7	6834	696.858805028763	0
7	6839	697.748014869229	0
7	6844	700.361313397276	0
7	6849	702.094553114361	0
7	6854	702.10825603621	0
7	6859	702.37783853526	0
7	6864	702.48176650379	0
7	6869	702.528208441296	0
7	6874	702.808650575533	0
7	6879	704.243698036671	0
7	6884	704.314053532644	0
7	6889	704.474304370866	0
7	6894	704.870220022122	0
7	6899	705.668459961473	0
7	6904	706.132251815618	0
7	6909	706.175476433226	0
7	6914	707.101488328999	0
7	6919	707.371602469886	0
7	6924	707.440027864878	0
7	6929	707.864885928811	0
7	6934	708.221744319222	0
7	6939	708.300110246424	0
7	6944	708.590153081172	0
7	6949	709.578936465393	0
7	6954	709.962015482397	0
7	6959	710.056399167634	0
7	6964	711.090524360731	0
7	6969	711.920776568405	0
7	6974	712.53974032587	0
7	6979	712.965450190957	0
7	6984	713.324230039783	0
7	6989	713.495001593534	0
7	6994	714.146332455409	0
7	6999	714.9161048059	0
7	7004	715.152843044611	0
7	7009	715.41553712082	0
7	7014	715.471847617717	0
7	7019	715.919959421649	0
7	7025	716.279848692326	0
7	7030	716.460689310082	0
7	7035	716.543496156068	0
7	7040	716.759620133157	0
7	7045	717.395505606419	0
7	7050	718.633526266518	0
7	7055	718.78488145344	0
7	7062	719.045867322348	0
7	7065	719.054689027402	0
7	7070	721.156561707182	0
7	7075	721.180403741371	0
7	7080	721.400771345053	0
7	7085	721.703298551202	0
7	7090	722.190479927198	0
7	7095	722.89149920103	0
7	7100	723.178264728821	0
7	7105	723.204331525691	0
7	7110	723.53948491335	0
7	7115	723.793814809933	0
7	7120	723.899551966603	0
7	7125	725.664142946168	0
7	7130	725.77681033941	0
7	7135	726.231752566935	0
7	7140	726.835483140786	0
7	7145	727.542135460827	0
7	7152	727.583273398149	0
7	7155	727.592095103203	0
7	7160	728.544693636501	0
7	7165	728.584271567005	0
7	7170	728.915421160761	0
7	7175	729.369853784191	0
7	7180	729.380940498419	0
7	7185	729.398585529096	0
7	7190	729.541085494022	0
7	7195	731.069404638183	0
7	7200	732.013467972302	0
7	7205	732.304619462217	0
7	7210	732.352436915721	0
7	7215	732.508122053393	0
7	7220	733.267075091794	0
7	7225	733.49582475728	0
7	7230	734.129844759882	0
7	7235	734.339281044105	0
7	7240	734.380515419677	0
7	7245	735.002990784739	0
7	7250	735.777624279037	0
7	7255	736.577692871922	0
7	7260	738.132404691131	0
7	7265	738.491182169148	0
7	7270	738.605187898165	0
7	7275	738.672739406391	0
7	7280	739.167888686142	0
7	7285	739.419843844683	0
7	7292	739.609626255883	0
7	7295	739.618447960937	0
7	7300	740.072574453431	0
7	7305	740.35587390842	0
7	7310	740.909972529449	0
7	7315	741.698238416077	0
7	7320	741.86877460912	0
7	7325	742.050546287773	0
7	7330	742.376755387841	0
7	7335	744.133580310381	0
7	7340	744.44963658589	0
7	7345	745.816343451773	0
7	7350	746.529224654261	0
7	7355	746.665586583208	0
7	7360	747.274750113832	0
7	7365	748.022910422008	0
7	7370	748.204641750946	0
7	7376	748.342714149927	0
7	7381	748.415131019505	0
7	7386	749.594690195062	0
7	7391	750.353262315396	0
7	7396	750.774986769501	0
7	7401	750.838254980324	0
7	7406	751.718109624836	0
7	7411	753.514718191072	0
7	7416	755.002094377131	0
7	7421	757.049701366882	0
7	7426	757.307284928657	0
7	7431	757.644251049693	0
7	7436	759.141236019065	0
7	7441	759.662274519503	0
7	7446	760.32128717609	0
7	7451	761.194605924326	0
7	7456	762.612582641804	0
7	7461	762.840482007057	0
7	7466	763.640003091225	0
7	7471	764.371621652269	0
7	7476	764.746077454872	0
7	7481	764.929216780957	0
7	7486	765.374718342132	0
7	7491	767.355786428553	0
7	7496	767.384484647118	0
7	7501	768.388847939219	0
7	7506	770.30519896115	0
7	7511	770.44793115944	0
7	7516	770.684296015757	0
7	7521	771.2258840769	0
7	7526	771.74513426461	0
7	7531	772.46709485611	0
7	7536	772.741951040521	0
7	7541	772.814721968941	0
7	7546	772.857677174503	0
7	7551	773.655792270322	0
7	7556	773.744576009159	0
7	7561	773.827004902934	0
7	7566	774.263607922623	0
7	7571	774.540958680181	0
7	7576	774.68809603663	0
7	7581	774.800974277559	0
7	7586	775.405059192921	0
7	7591	775.478983794561	0
7	7596	775.681493004837	0
7	7601	775.911784790821	0
7	7606	776.239050000756	0
7	7611	776.388590403128	0
7	7616	776.674166648846	0
7	7621	777.929719549905	0
7	7626	777.991338215958	0
7	7631	778.70068356526	0
7	7636	779.226189542814	0
7	7641	779.363090593245	0
7	7646	779.529885899366	0
7	7651	779.7253137535	0
7	7656	780.289039753017	0
7	7661	780.564176367992	0
7	7666	780.586304163782	0
7	7671	780.704727057501	0
7	7676	782.12047587237	0
7	7681	782.344189733589	0
7	7686	782.601855002148	0
7	7691	783.146915122167	0
7	7696	783.567795253777	0
7	7701	783.817180063796	0
7	7706	784.432263135119	0
7	7711	784.444224091206	0
7	7716	784.578965317394	0
7	7721	785.777852074615	0
7	7729	786.163272531238	0
7	7732	786.172094236292	0
7	7737	786.60278333163	0
7	7742	786.796196736328	0
7	7747	787.190255058673	0
7	7752	787.965199281846	0
7	7757	788.033915788411	0
7	7762	788.047374364947	0
7	7767	788.221690313339	0
7	7772	788.512176387803	0
7	7777	788.710160482567	0
7	7782	789.498352723269	0
7	7787	790.356971543855	0
7	7792	790.491864424678	0
7	7797	791.003921612625	0
7	7802	791.498285891016	0
7	7807	791.731604787939	0
7	7812	793.158455498712	0
7	7817	793.397880402452	0
7	7822	793.655400569913	0
7	7827	793.75263774265	0
7	7832	794.290681154947	0
7	7837	794.628216661818	0
7	7842	794.669770011635	0
7	7847	794.864605594178	0
7	7852	794.890638721465	0
7	7857	794.979923117356	0
7	7862	794.991683043744	0
7	7867	795.361581842376	0
7	7872	795.763784327453	0
7	7877	795.993170448434	0
7	7882	797.581980240303	0
7	7887	798.207348037688	0
7	7892	798.227999627998	0
7	7897	798.272536599364	0
7	7902	798.308747049057	0
7	7907	798.843484446297	0
7	7912	799.244843771552	0
7	7917	800.080141395406	0
7	7922	800.377522356933	0
7	7927	800.953726725593	0
7	7932	801.537645819334	0
7	7937	802.012352810152	0
7	7942	802.917771360226	0
7	7947	804.049886234539	0
7	7952	804.366533981312	0
7	7957	805.452032012083	0
7	7962	805.726760196241	0
7	7967	805.751082644661	0
7	7972	806.983225466249	0
7	7977	807.368101722247	0
7	7982	807.382346238021	0
7	7987	807.499092153588	0
7	7992	807.510893156205	0
7	7997	807.806063894825	0
7	8002	809.253480393452	0
7	8007	809.477898930212	0
7	8012	809.610356552037	0
7	8017	809.736255356874	0
7	8022	810.401044586863	0
7	8027	811.791691321208	0
7	8032	813.300539880943	0
7	8037	814.875590031815	0
7	8042	815.054288651431	0
7	8047	815.530148531565	0
7	8052	815.617599415097	0
7	8057	815.722794828453	0
7	8062	817.268741856858	0
7	8067	817.431821964296	0
7	8072	817.76917756202	0
7	8080	817.907249961001	0
7	8083	817.916071666055	0
7	8088	817.932879790038	0
7	8093	819.464510622141	0
7	8098	820.2618092325	0
7	8103	820.54626059517	0
7	8108	821.585574230924	0
7	8113	821.807667719758	0
7	8118	822.09979489191	0
7	8123	822.378801824334	0
7	8128	822.98731080458	0
7	8133	823.626882103874	0
7	8138	823.649257056435	0
7	8145	825.800541022944	0
7	8148	825.809362727998	0
7	8153	825.918781864658	0
7	8158	826.226470430583	0
7	8163	826.450439927639	0
7	8168	826.626764531005	0
7	8173	826.712948105831	0
7	8178	826.84502353397	0
7	8183	827.290585832904	0
7	8188	828.197491290502	0
7	8193	828.328025672079	0
7	8198	829.497505930121	0
7	8203	833.69585964565	0
7	8208	833.911177559768	0
7	8213	835.242849615506	0
7	8218	835.685712441541	0
7	8225	837.644758523602	0
7	8228	837.653580228656	0
7	8233	838.179616906251	0
7	8238	838.597307487832	0
7	8243	838.688964225747	0
7	8248	839.701527714159	0
7	8253	839.757392133655	0
7	8258	840.171646283562	0
7	8263	840.189116873769	0
7	8268	840.239793388431	0
7	8273	840.983313046687	0
7	8278	841.934554910723	0
7	8283	841.964249445745	0
7	8288	842.131753855815	0
7	8293	842.632630903321	0
7	8298	842.654385159509	0
7	8303	842.915566966293	0
7	8308	843.036956933179	0
7	8313	843.057942058344	0
7	8318	843.572355975652	0
7	8323	843.867861438441	0
7	8328	844.075721201518	0
7	8333	844.759731096009	0
7	8338	845.729199867136	0
7	8343	845.91575177133	0
7	8348	846.835914573135	0
7	8353	846.871483772592	0
7	8358	846.993619792928	0
7	8363	847.219977055309	0
7	8368	848.864127797946	0
7	8373	848.916848285406	0
7	8378	849.396671930532	0
7	8383	849.587581796929	0
7	8388	850.19038417102	0
7	8393	850.962795145419	0
7	8398	851.077559401203	0
7	8403	851.403275507558	0
7	8408	851.678823755626	0
7	8413	852.592037440001	0
7	8418	854.352374995778	0
7	8423	854.385321803485	0
7	8429	856.306638319624	0
7	8434	857.186198952132	0
7	8439	857.790717270329	0
7	8444	858.091881935185	0
7	8449	858.320343303138	0
7	8454	858.395519008895	0
7	8459	858.433572302539	0
7	8464	859.034588709356	0
7	8469	859.731678052059	0
7	8474	860.36074769876	0
7	8479	861.577949930351	0
7	8484	861.680976291942	0
7	8489	861.863295841405	0
7	8494	862.375738045928	0
7	8499	862.735045837282	0
7	8504	863.506263914749	0
7	8509	863.747457294869	0
7	8514	864.446642746106	0
7	8519	864.501949605251	0
7	8524	866.212630238466	0
7	8529	866.48338296463	0
7	8534	866.65601558708	0
7	8539	866.81814513135	0
7	8544	867.268377873792	0
7	8549	867.425904519783	0
7	8554	868.458118430645	0
7	8559	868.904359140521	0
7	8564	870.476014838527	0
7	8569	870.727084916895	0
7	8574	871.622287850369	0
7	8579	872.195232520569	0
7	8584	873.747170710545	0
7	8589	873.869151122977	0
7	8594	874.197584829034	0
7	8599	874.607129122273	0
7	8604	874.938476808864	0
7	8609	876.04993045375	0
7	8614	877.237659925523	0
7	8619	877.999164216518	0
7	8624	879.111868594621	0
7	8629	879.340125595511	0
7	8634	879.51387842511	0
7	8639	880.967222668828	0
7	8644	881.22580091251	0
7	8649	881.402508713652	0
7	8654	881.516225133867	0
7	8659	882.070237611338	0
7	8664	883.183311011584	0
7	8669	883.42517231828	0
7	8674	883.584569186586	0
7	8679	883.936387845834	0
7	8686	884.072246935361	0
7	8689	884.081068640415	0
7	8694	884.397921991841	0
7	8699	884.752243433877	0
7	8704	885.328413441342	0
7	8709	886.495961616544	0
7	8714	886.724946191387	0
7	8719	887.269540202657	0
7	8724	887.302351860317	0
7	8729	887.629102313494	0
7	8734	887.813461761192	0
7	8739	888.077010839851	0
7	8744	888.284674165212	0
7	8749	890.661672906575	0
7	8754	891.549000658276	0
7	8759	891.75033229649	0
7	8764	892.018542121732	0
7	8769	892.629807744992	0
7	8774	894.264889701359	0
7	8780	894.754365949974	0
7	8785	894.99223292044	0
7	8790	896.435124383967	0
7	8795	896.508086703177	0
7	8800	896.877641743489	0
7	8805	896.923008244834	0
7	8810	897.035329624607	0
7	8815	897.926169922486	0
7	8820	898.31080076211	0
7	8825	898.610501106152	0
7	8830	898.936779523293	0
7	8835	899.148901365513	0
7	8842	899.325298366174	0
7	8845	899.334120071228	0
7	8850	899.805527764391	0
7	8855	900.267055919072	0
7	8860	900.490296381425	0
7	8865	901.233751902319	0
7	8870	902.062094919339	0
7	8875	902.186142059877	0
7	8880	902.286211201798	0
7	8885	902.502126598747	0
7	8890	903.278086242121	0
7	8895	904.96062553798	0
7	8900	905.042775590388	0
7	8905	906.124901176716	0
7	8910	906.399363698575	0
7	8915	906.900489198194	0
7	8920	908.072518814082	0
7	8925	908.434677624339	0
7	8930	908.566002460047	0
7	8935	908.905372003587	0
7	8940	909.939905634317	0
7	8945	910.338010216057	0
7	8950	910.758825027449	0
7	8955	911.3264247628	0
7	8960	911.573784887944	0
7	8965	913.488069923859	0
7	8970	913.850223915439	0
7	8975	914.185446569729	0
7	8980	915.356111927523	0
7	8985	915.503771475073	0
7	8990	915.590236867159	0
7	8995	915.704484809453	0
7	9000	916.185136384611	0
7	9005	916.235561485323	0
7	9010	917.403905749866	0
7	9015	917.61107201259	0
7	9020	917.788855037852	0
7	9025	917.849583311288	0
7	9030	918.466523262725	0
7	9035	918.512905667635	0
7	9040	918.946550090532	0
7	9045	919.011742550537	0
7	9050	920.014714080129	0
7	9055	920.935439100828	0
7	9060	922.351932698286	0
7	9065	923.34644293409	0
7	9070	924.187286541219	0
7	9075	924.402067169774	0
7	9080	924.633159616347	0
7	9085	924.653172164671	0
7	9090	924.964899866817	0
7	9095	925.555180447081	0
7	9100	926.323238321959	0
7	9105	926.67643820768	0
7	9110	928.288971388023	0
7	9115	928.853863517139	0
7	9120	929.032517556571	0
7	9125	929.225964008839	0
7	9131	929.38127558271	0
7	9136	929.830010487049	0
7	9143	929.868033582654	0
7	9146	929.876855287708	0
7	9151	932.412987897979	0
7	9156	932.540209684684	0
7	9161	932.557318940874	0
7	9166	932.805363087833	0
7	9171	933.06008952309	0
7	9176	934.299720941035	0
7	9181	934.660611635906	0
7	9186	935.063733544278	0
7	9191	935.176531976317	0
7	9196	935.936860271051	0
7	9201	936.223443262215	0
7	9206	936.496710997573	0
7	9211	936.805808642868	0
7	9216	936.846058004097	0
7	9221	937.103362106475	0
7	9226	937.685209421223	0
7	9231	937.935746163723	0
7	9236	939.132029792716	0
7	9241	939.278358050012	0
7	9246	941.03057999411	0
7	9251	941.455906000823	0
7	9256	941.910936758747	0
7	9261	942.499173511372	0
7	9266	942.747813162725	0
7	9271	942.840025708391	0
7	9276	943.646170536781	0
7	9281	943.88479550475	0
7	9286	944.586779366273	0
7	9291	944.618711977186	0
7	9296	945.910748611206	0
7	9301	946.078947013586	0
7	9306	946.292881705984	0
7	9311	946.687196538668	0
7	9316	947.506645855069	0
7	9321	947.902063412575	0
7	9326	948.068569255324	0
7	9331	948.997350081785	0
7	9336	949.241023108669	0
7	9341	949.309607531979	0
7	9346	949.60882280376	0
7	9351	950.178262993884	0
7	9356	950.342763075694	0
7	9361	950.481758182467	0
7	9366	950.517158596553	0
7	9373	953.016560960095	0
7	9376	953.025382665149	0
7	9381	954.170708157959	0
7	9386	954.381304602416	0
7	9391	955.264885560247	0
7	9396	955.383242254364	0
7	9401	956.015491182229	0
7	9406	957.241504269305	0
7	9411	958.817404560969	0
7	9416	959.30591806756	0
7	9421	960.106555549855	0
7	9426	961.536633943247	0
7	9431	961.594670039659	0
7	9436	963.665132793609	0
7	9441	963.787194936148	0
7	9446	963.796486201365	0
7	9451	963.827614222048	0
7	9456	964.692416489331	0
7	9461	964.963966427844	0
7	9466	965.447197783227	0
7	9471	966.187394228865	0
7	9476	966.445718355824	0
7	9484	966.583790754805	0
7	9487	966.592612459859	0
7	9492	966.738410844314	0
7	9497	967.329059578412	0
7	9502	968.68376299397	0
7	9507	969.376316152343	0
7	9512	970.458160635861	0
7	9517	970.61709758696	0
7	9522	970.710507983588	0
7	9527	971.202495930343	0
7	9532	971.415741561475	0
7	9537	972.2160121259	0
7	9542	972.413363669605	0
7	9547	972.716039479165	0
7	9552	972.746644484263	0
7	9557	974.016965593386	0
7	9564	974.397039759661	0
7	9567	974.405861464715	0
7	9572	974.427760945895	0
7	9577	976.437594862839	0
7	9582	976.709512035305	0
7	9587	976.945635840201	0
7	9592	977.755176902362	0
7	9597	977.876144829351	0
7	9602	978.684374120537	0
7	9607	978.925100791669	0
7	9612	979.818153607407	0
7	9617	979.870203134166	0
7	9622	980.0491074006	0
7	9627	980.100007553051	0
7	9632	980.229831473737	0
7	9639	980.327488391442	0
7	9642	980.336310096496	0
7	9647	980.713361686828	0
7	9652	981.612925752457	0
7	9657	981.935459026445	0
7	9662	982.039848926333	0
7	9667	982.45427580186	0
7	9672	982.625893222386	0
7	9677	983.708965625079	0
7	9682	984.759458253956	0
7	9687	985.216604809752	0
7	9692	985.501162898997	0
7	9697	986.677976600613	0
7	9702	987.115923889441	0
7	9707	987.535383614523	0
7	9712	988.082819929733	0
7	9717	989.57984805219	0
7	9722	989.698969541664	0
7	9729	990.633462315997	0
7	9732	990.642284021051	0
7	9737	991.574226791804	0
7	9744	992.163272565263	0
7	9747	992.172094270317	0
7	9752	992.995999909181	0
7	9757	993.184598816236	0
7	9762	993.429305820946	0
7	9767	994.954447505247	0
7	9772	994.963581904348	0
7	9777	995.176751897479	0
7	9782	996.303821446783	0
7	9787	996.406531617654	0
7	9792	996.781319352553	0
7	9799	996.957446789123	0
7	9802	996.966268494177	0
7	9807	997.966231940787	0
7	9812	998.382268647844	0
7	9817	998.464519787779	0
8	602	61.051278625332	0.006307287516
8	718	73.947768568304	0.006635294756
8	1605	154.234296344304	0.008749436301
8	1710	166.994602187578	0.000188308681
8	2046	199.656039522934	0.001622122862
8	2182	214.965683034937	0.004869167297
8	2207	216.76485203444	0.000523610164
8	2407	240.920749727002	0.005459041456
8	2508	250.679838571409	0.006427625623
8	2974	291.506546801293	0.007344809629
8	3114	307.783439954614	0.007446736642
8	3310	329.298660315865	0.004833812203
8	3470	344.245748121923	0.000793362119
8	3485	345.11776239754	0.001850138971
8	3651	362.762108226213	0.001726825738
8	3927	390.620146370209	0.00804598923
8	4214	419.702908622521	0.056122256228
8	4333	428.909412438768	0.005468757316
8	4918	498.181502077616	0.034389064114
8	4920	498.19032378267	0.034417774898
8	5371	547.067042056849	0.002848740309
8	5757	585.77366604937	0.006378010011
8	6058	620.341236482574	0.003412243611
8	6320	649.243842687263	0.093021885376
8	6629	676.726299987285	0.004752139508
8	7061	719.045867322348	0.008363114373
8	7151	727.583273398149	0.005288812761
8	7291	739.609626255883	0.007111594774
8	7373	748.333892444873	0.030545299418
8	7728	786.163272531238	0.003952549057
8	8077	817.898428255947	0.100633153552
8	8079	817.907249961001	0.036424329857
8	8144	825.800541022944	0.001616128589
8	8224	837.644758523602	0.008150194039
8	8685	884.072246935361	0.004460320283
8	8841	899.325298366174	0.00680050564
8	9142	929.868033582654	0.006159346031
8	9372	953.016560960095	0.003432193194
8	9481	966.574969049751	0.108008353994
8	9483	966.583790754805	0.031760874974
8	9563	974.397039759661	0.000560002773
8	9638	980.327488391442	0.006619991663
8	9728	990.633462315997	0.001859917538
8	9743	992.163272565263	0.00677619293
8	9798	996.957446789123	0.002805763792

