version 2
run General-478-20240201-11:04:33-40057
attr configname General
attr datetime 20240201-11:04:33
attr experiment General
attr inifile main.ini
attr iterationvars "$0=1.0, $1=3.5, $2=70"
attr iterationvarsf 1.0,3.5,70-
attr measurement "$0=1.0, $1=3.5, $2=70"
attr network Rete
attr processid 40057
attr repetition 18
attr replication #18
attr resultdir results
attr runnumber 478
attr seedset 478
param Rete.lambda 1.0
param Rete.a 0.3s
param Rete.b 3.5s
param Rete.c 0.1s
param Rete.d 0.3s
param Rete.mu 3.0
param Rete.source2.interArrivalTime exponential(1s/lambda)
param Rete.source2.jobServiceTime exponential(1s/mu)
param Rete.source2.deadline uniform(a,b)
param Rete.server2.j 70
param Rete.server2.V uniform(c,d)

vector 0 Rete.passiveQueue queueLength:vector ETV
attr interpolationmode sample-hold
attr title "queue length, vector"
vector 1 Rete.passiveQueue queueingTime:vector ETV
attr interpolationmode none
attr title "queueing time at dequeue, vector"
attr unit s
vector 2 Rete.sink lifeTime:vector ETV
attr interpolationmode none
attr title "lifetime of arrived jobs, vector"
attr unit s
vector 3 Rete.sink totalQueueingTime:vector ETV
attr interpolationmode none
attr title "the total time spent in queues by arrived jobs, vector"
attr unit s
vector 4 Rete.sink queuesVisited:vector ETV
attr interpolationmode none
attr title "the total number of queues visited by arrived jobs, vector"
vector 5 Rete.sink totalServiceTime:vector ETV
attr interpolationmode none
attr title "the total time spent  by arrived jobs, vector"
attr unit s
vector 6 Rete.sink totalDelayTime:vector ETV
attr interpolationmode none
attr title "the total time spent in delay nodes by arrived jobs, vector"
attr unit s
vector 7 Rete.sink delaysVisited:vector ETV
attr interpolationmode none
attr title "the total number of delays visited by arrived jobs, vector"
vector 8 Rete.sink generation:vector ETV
attr interpolationmode none
attr title "the generation of the arrived jobs, vector"
0	0	0	0
0	5	3.234240605734	1
0	6	3.245361143479	0
0	10	3.421403519058	1
0	11	3.862088648332	0
0	23	6.032612491142	1
0	24	6.387055204248	0
0	36	8.291380925095	1
0	37	8.515280574248	0
0	44	8.629630081007	1
0	46	8.816378075694	2
0	47	9.162331976083	1
0	49	9.162331976083	0
0	55	10.432131043441	1
0	56	10.568051043248	0
0	65	11.771206317077	1
0	66	12.347765663228	0
0	83	14.693187214866	1
0	84	14.999677335573	0
0	96	18.05435319943	1
0	98	18.577442324171	2
0	100	18.580105156462	3
0	101	18.621822892462	2
0	103	18.621822892462	1
0	106	19.073685861294	2
0	108	19.187706678723	3
0	109	19.238550397315	2
0	111	19.238550397315	1
0	113	19.855277902168	0
0	130	22.542640646525	1
0	132	22.602293341807	2
0	133	22.936116279403	1
0	135	22.936116279403	0
0	141	23.280634810419	1
0	142	23.800868788376	0
0	149	26.293533764358	1
0	150	26.83941023579	0
0	157	29.101041708839	1
0	158	29.163851842573	0
0	167	31.618098935335	1
0	168	31.695671189841	0
0	182	39.188358896689	1
0	183	39.419112252907	0
0	195	41.310792024683	1
0	196	41.8108805137	0
0	213	46.968450414485	1
0	215	47.285764818014	2
0	217	47.380549575856	3
0	218	47.51721445966	2
0	220	47.51721445966	1
0	221	47.51721445966	0
0	239	55.247328886351	1
0	241	55.359083520975	2
0	243	55.71115787003	3
0	244	55.817241628478	2
0	246	55.817241628478	1
0	247	55.817241628478	0
0	250	55.962013154203	1
0	251	56.433969133331	0
0	258	58.92923871973	1
0	259	59.395509889949	0
0	271	61.240366123413	1
0	272	61.802548046182	0
0	279	62.924711103905	1
0	280	63.22209870499	0
0	292	65.522971003339	1
0	294	65.544742219664	2
0	295	65.999236385942	1
0	297	65.999236385942	0
0	318	72.808360739329	1
0	320	73.287044893658	2
0	321	73.338045544884	1
0	323	73.338045544884	0
0	326	73.462202437057	1
0	327	73.954773049737	0
0	339	80.588378851439	1
0	340	80.808850729999	0
0	352	83.640615846527	1
0	353	83.673575817915	0
0	357	83.788461008432	1
0	359	84.004479835013	2
0	360	84.290303322768	1
0	362	84.290303322768	0
0	373	87.179829019623	1
0	374	87.372050851132	0
0	391	95.037038934935	1
0	392	95.251538027627	0
0	404	98.047971769873	1
0	405	98.32870418451	0
0	417	106.331195416308	1
0	418	106.90458224152	0
0	435	112.689201951963	1
0	437	112.732884114023	2
0	439	112.889411656703	3
0	440	112.95015673953	2
0	442	112.95015673953	1
0	443	112.95015673953	0
0	446	113.221788121883	1
0	447	113.566884244383	0
0	459	119.28105017758	1
0	461	119.493125264987	2
0	462	119.850897602257	1
0	464	119.850897602257	0
0	470	119.977480356907	1
0	472	120.270894488881	2
0	474	120.360409554826	3
0	477	120.614452972518	2
0	478	120.614452972518	1
0	479	120.614452972518	0
0	500	126.076904424315	1
0	501	126.169437853958	0
0	525	133.528692559032	1
0	526	133.711021691048	0
0	538	135.267648950312	1
0	539	135.70635593871	0
0	546	136.30252189199	1
0	548	136.314654418648	2
0	550	136.331421835408	3
0	552	136.55327019758	4
0	553	136.655880383933	3
0	555	136.655880383933	2
0	556	136.655880383933	1
0	557	136.655880383933	0
0	565	137.666620831527	1
0	567	137.898618272008	2
0	568	137.990756410156	1
0	570	137.990756410156	0
0	573	138.529027295106	1
0	574	138.607483915009	0
0	593	146.008899879565	1
0	594	146.556816255258	0
0	606	150.239411654024	1
0	607	150.610074220611	0
0	614	151.111128186106	1
0	615	151.571007235683	0
0	622	152.076628603484	1
0	624	152.151943420153	2
0	625	152.307839546128	1
0	627	152.307839546128	0
0	630	152.560397447468	1
0	631	152.924567050981	0
0	648	155.849097550895	1
0	650	155.87491800048	2
0	651	155.922497217457	1
0	654	156.53922472231	0
0	666	158.377142704046	1
0	667	158.39091799359	0
0	681	161.315762597839	1
0	682	161.324176816513	0
0	686	161.782992397699	1
0	687	161.940904321366	0
0	691	162.104236569207	1
0	693	162.438708479926	2
0	694	162.557631826219	1
0	696	162.557631826219	0
0	704	165.326876597935	1
0	705	165.443696554483	0
0	709	165.940782553858	1
0	710	166.060424059336	0
0	724	169.547889229886	1
0	726	169.783660916717	2
0	727	170.12586688728	1
0	729	170.12586688728	0
0	740	171.400732023674	1
0	741	171.655345366344	0
0	753	175.129130260613	1
0	755	175.18165839603	2
0	756	175.413671137255	1
0	758	175.413671137255	0
0	764	175.599500097552	1
0	765	176.058610655654	0
0	772	176.832464752743	1
0	773	177.248567854107	0
0	780	177.753338449962	1
0	781	177.959085264887	0
0	803	182.542493537318	1
0	804	182.877965382006	0
0	811	184.573879284597	1
0	812	184.582006557568	0
0	821	187.050119398108	1
0	822	187.592152311223	0
0	829	187.749169509943	1
0	831	188.259659441132	2
0	832	188.322482711252	1
0	834	188.322482711252	0
0	842	192.242076581817	1
0	843	192.536598907824	0
0	865	196.535467390157	1
0	866	196.550890396332	0
0	875	198.744632000477	1
0	876	198.836019913683	0
0	880	199.186342071312	1
0	881	199.452747418536	0
0	888	201.130271943053	1
0	889	201.681697024567	0
0	901	204.348355423775	1
0	902	204.516568727657	0
0	911	206.728026672058	1
0	914	207.109506472224	0
0	930	209.061346987641	1
0	932	209.466551382234	2
0	933	209.546562738149	1
0	935	209.546562738149	0
0	953	215.050329498966	1
0	955	215.073321197831	2
0	957	215.178086393863	3
0	958	215.518426737409	2
0	960	215.518426737409	1
0	961	215.518426737409	0
0	967	216.225939662057	1
0	969	216.337900612527	2
0	971	216.677895618977	3
0	973	216.724934325172	4
0	974	216.763113775999	3
0	976	216.763113775999	2
0	977	216.763113775999	1
0	979	217.379841280852	0
0	991	219.543087365285	1
0	992	219.892668868173	0
0	1004	222.232416776655	1
0	1005	222.710040252875	0
0	1042	234.457625795134	1
0	1043	235.068289573022	0
0	1050	236.655849212012	1
0	1051	237.17601663063	0
0	1063	240.201436202429	1
0	1064	240.2359582184	0
0	1073	241.763924286434	1
0	1075	242.02155620494	2
0	1076	242.363730606821	1
0	1078	242.363730606821	0
0	1094	245.013492997713	1
0	1095	245.60558023653	0
0	1102	245.881985691612	1
0	1104	246.192234271029	2
0	1105	246.300882254581	1
0	1107	246.300882254581	0
0	1110	246.36785497189	1
0	1112	246.851777655192	2
0	1113	246.917609759434	1
0	1115	246.917609759434	0
0	1123	248.086204391094	1
0	1124	248.39159788175	0
0	1136	250.706822491042	1
0	1137	250.869737202781	0
0	1146	252.497991100353	1
0	1147	252.854596758938	0
0	1154	253.803342208324	1
0	1155	254.056706464349	0
0	1162	255.406355252334	1
0	1163	255.510577112756	0
0	1167	255.818817421537	1
0	1168	256.127304617609	0
0	1195	262.186187566728	1
0	1196	262.505619641773	0
0	1208	264.026859156999	1
0	1209	264.414318995454	0
0	1216	264.855955995103	1
0	1217	265.200190585665	0
0	1224	265.380902627202	1
0	1225	265.831349391999	0
0	1232	265.991882236627	1
0	1233	266.546280654702	0
0	1245	272.144492843793	1
0	1246	272.172490915236	0
0	1250	272.561895684256	1
0	1251	272.789218420089	0
0	1258	274.036206950429	1
0	1259	274.466864555384	0
0	1266	276.143245169811	1
0	1267	276.170174061999	0
0	1271	276.494392199606	1
0	1273	276.522658719832	2
0	1275	276.778240100878	3
0	1276	276.786901566852	2
0	1278	276.786901566852	1
0	1279	276.786901566852	0
0	1292	278.888937810655	1
0	1293	279.504717383711	0
0	1310	283.404569504419	1
0	1311	283.416976700022	0
0	1320	284.762976234854	1
0	1321	284.779351851054	0
0	1335	287.227346474082	1
0	1336	287.297399216479	0
0	1350	293.35646635121	1
0	1351	293.366801183051	0
0	1366	297.013985314151	1
0	1368	297.156685817195	2
0	1369	297.319547389961	1
0	1371	297.319547389961	0
0	1374	297.776859044725	1
0	1375	297.936274894814	0
0	1379	297.952424175188	1
0	1381	298.423713683121	2
0	1382	298.553002399667	1
0	1384	298.553002399667	0
0	1387	298.769229413476	1
0	1388	299.16972990452	0
0	1400	302.831008364586	1
0	1401	303.363151768935	0
0	1423	310.780078486615	1
0	1424	310.92015086619	0
0	1428	311.080506039933	1
0	1430	311.173537995119	2
0	1432	311.301528126717	3
0	1433	311.536878371043	2
0	1435	311.536878371043	1
0	1436	311.536878371043	0
0	1442	311.792001027518	1
0	1443	312.353269075983	0
0	1455	313.679472301401	1
0	1456	314.134371855839	0
0	1463	314.315799320813	1
0	1464	314.890562632714	0
0	1486	320.83206363324	1
0	1487	321.029010773836	0
0	1494	321.573615640787	1
0	1495	321.768893923501	0
0	1507	323.907479640499	1
0	1508	324.504199730831	0
0	1520	329.315775458904	1
0	1521	329.455145812739	0
0	1525	329.501979024939	1
0	1527	329.937360986861	2
0	1528	330.071873317592	1
0	1530	330.071873317592	0
0	1533	330.167263327723	1
0	1535	330.580443410277	2
0	1536	330.688600822445	1
0	1538	330.688600822445	0
0	1541	330.782682764217	1
0	1542	331.305328327298	0
0	1554	334.299737703724	1
0	1555	334.739870746453	0
0	1562	336.09302601815	1
0	1563	336.377983622953	0
0	1585	343.062960178979	1
0	1586	343.677690006388	0
0	1608	349.068225821362	1
0	1610	349.474417659192	2
0	1612	349.632068127446	3
0	1613	349.668662171339	2
0	1615	349.668662171339	1
0	1616	349.668662171339	0
0	1624	350.595191321778	1
0	1625	351.175260341457	0
0	1632	353.65761458335	1
0	1633	354.027583350914	0
0	1645	356.218430393191	1
0	1646	356.352628425809	0
0	1650	356.955051616797	1
0	1651	356.969355930662	0
0	1665	361.972250956954	1
0	1666	362.041893979434	0
0	1670	362.298229807773	1
0	1671	362.658621484287	0
0	1693	366.499423550486	1
0	1694	366.969599197388	0
0	1726	373.676988726883	1
0	1728	373.816454240521	2
0	1729	373.839138735807	1
0	1733	374.068491602513	2
0	1735	374.409709683848	3
0	1736	374.45586624066	2
0	1738	374.45586624066	1
0	1739	374.45586624066	0
0	1742	374.788064661376	1
0	1743	375.072593745513	0
0	1760	379.099006359776	1
0	1761	379.463744560027	0
0	1768	381.083550926891	1
0	1769	381.687288745112	0
0	1796	389.073304957356	1
0	1799	389.784835213924	0
0	1805	390.618719072339	1
0	1806	390.793664797485	0
0	1815	392.913994460859	1
0	1816	393.224600057407	0
0	1853	402.067895549982	1
0	1855	402.320560681837	2
0	1856	402.562051714186	1
0	1858	402.562051714186	0
0	1874	408.401185505216	1
0	1876	408.559921146976	2
0	1877	408.569397381653	1
0	1880	409.186124886506	0
0	1887	410.278402803312	1
0	1888	410.659142683804	0
0	1895	412.985481469006	1
0	1896	413.286809897221	0
0	1903	414.531706803429	1
0	1904	415.015789813487	0
0	1911	418.744614324117	1
0	1912	418.750156357549	0
0	1916	419.248151975326	1
0	1918	419.27820519254	2
0	1919	419.366883862402	1
0	1922	419.983611367255	0
0	1949	428.663468060872	1
0	1951	428.902782509762	2
0	1952	429.144462936277	1
0	1954	429.144462936277	0
0	1960	431.635084997549	1
0	1961	432.001444106773	0
0	1973	433.133661399302	1
0	1975	433.191100334576	2
0	1976	433.53834580849	1
0	1978	433.53834580849	0
0	1984	434.591961584169	1
0	1985	434.739237172805	0
0	1994	436.078362950353	1
0	1995	436.137076672533	0
0	1999	436.517978597738	1
0	2001	436.6510974147	2
0	2003	436.711409487801	3
0	2004	436.753804177386	2
0	2006	436.753804177386	1
0	2008	437.370531682239	0
0	2020	438.581384729848	1
0	2021	438.944245173187	0
0	2028	439.343013829144	1
0	2030	439.591972430509	2
0	2031	439.873057478387	1
0	2033	439.873057478387	0
0	2049	441.940489858967	1
0	2050	442.468421692711	0
0	2057	443.416131461193	1
0	2058	443.760232014512	0
0	2075	447.800557175972	1
0	2076	447.882139060376	0
0	2080	448.422382699204	1
0	2081	448.498866565229	0
0	2085	448.746290038009	1
0	2086	449.115594070082	0
0	2093	451.049302824703	1
0	2095	451.60171308249	2
0	2096	451.624686823556	1
0	2098	451.624686823556	0
0	2101	451.797446957028	1
0	2103	451.84293054525	2
0	2105	451.891267968486	3
0	2106	452.241414328409	2
0	2108	452.241414328409	1
0	2109	452.241414328409	0
0	2150	464.136904237562	1
0	2152	464.226632469733	2
0	2153	464.749022250869	1
0	2155	464.749022250869	0
0	2161	466.015672181043	1
0	2162	466.215764875597	0
0	2174	468.266074823526	1
0	2175	468.374810993917	0
0	2189	470.53270403524	1
0	2190	470.872848335183	0
0	2202	473.879931485887	1
0	2203	474.221128555091	0
0	2210	475.069818947238	1
0	2211	475.290849839481	0
0	2223	476.966922844654	1
0	2225	477.30888806004	2
0	2226	477.515076820535	1
0	2228	477.515076820535	0
0	2244	481.92280703818	1
0	2245	481.925759157195	0
0	2255	483.328650021337	1
0	2256	483.463221265037	0
0	2265	484.91692983236	1
0	2266	485.185013746908	0
0	2273	485.480855511052	1
0	2274	486.092528460835	0
0	2281	486.455193283049	1
0	2283	486.623487304235	2
0	2285	486.804213801007	3
0	2286	486.874553554428	2
0	2288	486.874553554428	1
0	2289	486.874553554428	0
0	2302	494.878788770478	1
0	2303	494.997350902552	0
0	2327	503.407362335418	1
0	2328	503.869782177855	0
0	2345	507.42773294391	1
0	2347	507.887384898331	2
0	2348	507.968089986039	1
0	2350	507.968089986039	0
0	2353	508.301765291869	1
0	2354	508.584817490892	0
0	2361	509.603715587585	1
0	2362	509.990521271067	0
0	2384	515.346657197206	1
0	2385	515.663330519735	0
0	2397	517.330693510797	1
0	2399	517.597972563865	2
0	2400	517.893453774556	1
0	2402	517.893453774556	0
0	2433	529.53300965426	1
0	2434	529.764155280241	0
0	2441	531.394605031973	1
0	2442	531.832759528307	0
0	2449	533.256781800542	1
0	2450	533.27705989612	0
0	2464	536.904100677078	1
0	2466	537.102040090728	2
0	2467	537.189844968088	1
0	2469	537.189844968088	0
0	2482	540.35492151108	1
0	2483	540.47980679916	0
0	2487	540.66684119271	1
0	2489	540.841774647327	2
0	2490	541.096534304013	1
0	2492	541.096534304013	0
0	2508	544.617046760792	1
0	2509	545.0253852784	0
0	2521	547.895866134431	1
0	2523	548.090126341606	2
0	2524	548.146522367058	1
0	2526	548.146522367058	0
0	2529	548.317036907675	1
0	2531	548.549960793149	2
0	2533	548.588317359135	3
0	2535	548.711503337303	4
0	2536	548.763249871911	3
0	2538	548.763249871911	2
0	2539	548.763249871911	1
0	2542	549.086222162728	2
0	2543	549.379977376764	1
0	2545	549.379977376764	0
0	2571	557.23269315637	1
0	2573	557.384672705538	2
0	2574	557.473568421718	1
0	2576	557.473568421718	0
0	2584	558.885141742937	1
0	2585	559.24964597354	0
0	2592	560.065105612728	1
0	2593	560.087406930341	0
0	2597	560.565861203036	1
0	2599	560.63658706367	2
0	2600	560.704134435194	1
0	2603	561.320861940047	0
0	2615	564.483278944474	1
0	2616	564.580707598149	0
0	2620	564.833732908149	1
0	2621	565.197435103002	0
0	2633	571.971882434051	1
0	2634	571.990326330727	0
0	2638	572.025104730239	1
0	2639	572.60705383558	0
0	2666	577.265197028273	1
0	2667	577.703119395465	0
0	2674	580.091610776197	1
0	2675	580.4489560232	0
0	2708	587.99593016854	1
0	2710	588.080789991725	2
0	2711	588.359517290742	1
0	2713	588.359517290742	0
0	2719	588.77789154967	1
0	2720	589.375624462657	0
0	2727	590.56187525149	1
0	2728	591.148130694575	0
0	2740	594.249330934948	1
0	2741	594.290180736917	0
0	2750	596.406906350182	1
0	2752	596.579306815967	2
0	2753	596.815844667058	1
0	2755	596.815844667058	0
0	2761	600.391722586702	1
0	2762	600.691380733631	0
0	2769	601.637463852261	1
0	2770	601.656938785278	0
0	2779	605.198272487372	1
0	2780	605.241682553847	0
0	2789	608.390900549196	1
0	2790	608.585271224068	0
0	2797	609.335403443339	1
0	2798	609.778348328625	0
0	2805	610.489508963876	1
0	2807	610.708228223625	2
0	2808	610.878196110406	1
0	2810	610.878196110406	0
0	2813	610.966142742991	1
0	2815	611.305721562899	2
0	2816	611.494923615259	1
0	2818	611.494923615259	0
0	2824	613.620383210146	1
0	2825	613.659844011061	0
0	2869	625.153790499579	1
0	2870	625.638961796736	0
0	2877	627.392434371479	1
0	2878	627.780157072921	0
0	2885	628.029523931802	1
0	2886	628.507949063565	0
0	2903	633.718913278559	1
0	2904	634.327410777957	0
0	2936	643.45403477389	1
0	2938	643.592633352614	2
0	2939	643.947516235997	1
0	2941	643.947516235997	0
0	2952	645.959815255405	1
0	2954	645.975213393057	2
0	2955	646.035806517018	1
0	2959	646.562886781371	2
0	2960	646.652534021871	1
0	2962	646.652534021871	0
0	2970	647.612707056366	1
0	2971	647.995758912138	0
0	2983	650.336513983287	1
0	2984	650.41929304666	0
0	2988	650.532787932311	1
0	2989	651.036020551513	0
0	2996	652.731298792886	1
0	2998	652.766828732788	2
0	2999	653.273996019156	1
0	3001	653.273996019156	0
0	3007	654.066270968695	1
0	3008	654.278770583934	0
0	3015	654.38931395464	1
0	3017	654.573568745811	2
0	3018	654.916278560108	1
0	3020	654.916278560108	0
0	3026	658.334660762211	1
0	3027	658.402052084173	0
0	3036	659.484901980881	1
0	3037	659.862887053132	0
0	3044	660.139017422062	1
0	3046	660.21866244648	2
0	3047	660.555353874417	1
0	3049	660.555353874417	0
0	3065	664.132619734806	1
0	3066	664.528931976183	0
0	3078	668.254130664121	1
0	3080	668.288397496107	2
0	3081	668.724316698136	1
0	3083	668.724316698136	0
0	3094	669.580090436864	1
0	3096	669.95220574286	2
0	3098	669.984862572777	3
0	3099	670.193036574007	2
0	3101	670.193036574007	1
0	3102	670.193036574007	0
0	3108	671.632602357293	1
0	3109	671.797328392527	0
0	3113	672.213039629135	1
0	3115	672.402833600942	2
0	3116	672.41405589738	1
0	3118	672.41405589738	0
0	3121	672.449200238625	1
0	3122	673.030783402233	0
0	3129	675.491434050414	1
0	3130	675.921062329229	0
0	3158	686.259908603043	1
0	3159	686.362263631406	0
0	3163	686.401299391892	1
0	3164	686.978991136259	0
0	3171	688.103668917742	1
0	3172	688.550920027516	0
0	3179	689.53498232792	1
0	3180	690.11320770561	0
0	3187	690.907880469544	1
0	3189	690.943837764234	2
0	3191	691.232112689	3
0	3193	691.290690278296	4
0	3194	691.432991039456	3
0	3196	691.432991039456	2
0	3197	691.432991039456	1
0	3198	691.432991039456	0
0	3201	691.454690175621	1
0	3203	691.865253649328	2
0	3204	692.049718544309	1
0	3206	692.049718544309	0
0	3212	693.130256532094	1
0	3214	693.315556522737	2
0	3215	693.362522994447	1
0	3217	693.362522994447	0
0	3220	693.468203289254	1
0	3221	693.9792504993	0
0	3228	697.422201374244	1
0	3229	697.61642052405	0
0	3236	698.073408721999	1
0	3237	698.393967357589	0
0	3269	708.739975993227	1
0	3271	708.892312684896	2
0	3272	709.277154572528	1
0	3274	709.277154572528	0
0	3285	711.157772462912	1
0	3286	711.179006299649	0
0	3290	711.793898430387	1
0	3291	711.795733804502	0
0	3335	724.526463550964	1
0	3336	724.854686850813	0
0	3353	727.082804065342	1
0	3355	727.092401627189	2
0	3356	727.205745467104	1
0	3359	727.822472971957	0
0	3386	739.10251660103	1
0	3387	739.483801320495	0
0	3394	740.1216975725	1
0	3395	740.673007482741	0
0	3402	742.33220771954	1
0	3403	742.735315528296	0
0	3410	743.125455136366	1
0	3412	743.494306609501	2
0	3413	743.722330862832	1
0	3415	743.722330862832	0
0	3421	744.816807037334	1
0	3422	745.0414200447	0
0	3444	748.73192621203	1
0	3445	748.914709332387	0
0	3472	754.353495149251	1
0	3473	754.487203779547	0
0	3487	758.105402082336	1
0	3489	758.319724339562	2
0	3490	758.540363808909	1
0	3492	758.540363808909	0
0	3503	760.691451606945	1
0	3505	761.099129776106	2
0	3506	761.299933881443	1
0	3508	761.299933881443	0
0	3514	763.518740842786	1
0	3515	764.044086893973	0
0	3547	775.163717282026	1
0	3549	775.184494310582	2
0	3550	775.426112743136	1
0	3552	775.426112743136	0
0	3568	779.921672729626	1
0	3569	779.933744862186	0
0	3595	785.017022089456	1
0	3596	785.090786192667	0
0	3599	785.38579246263	1
0	3600	785.70751369752	0
0	3612	786.596913901079	1
0	3614	786.756707622792	2
0	3615	787.071168479985	1
0	3617	787.071168479985	0
0	3638	798.884350865958	1
0	3639	799.434190875609	0
0	3661	804.399120588744	1
0	3662	804.470769783359	0
0	3666	804.604747342616	1
0	3668	804.828196078382	2
0	3669	805.087497288212	1
0	3671	805.087497288212	0
0	3677	805.841063760767	1
0	3679	806.129304029707	2
0	3680	806.415583894314	1
0	3682	806.415583894314	0
0	3693	812.269038423931	1
0	3694	812.714218547777	0
0	3716	819.257681253894	1
0	3718	819.295105419532	2
0	3719	819.346518115723	1
0	3723	819.633846657523	2
0	3725	819.891366785382	3
0	3726	819.963245620576	2
0	3728	819.963245620576	1
0	3729	819.963245620576	0
0	3732	820.550391649063	1
0	3734	820.566915330102	2
0	3735	820.579973125429	1
0	3739	820.76419215307	2
0	3740	821.196700630282	1
0	3742	821.196700630282	0
0	3768	826.622582673339	1
0	3769	826.849826993725	0
0	3776	827.438800213368	1
0	3777	827.49782511705	0
0	3781	827.625939306512	1
0	3782	828.114552621903	0
0	3789	828.962280232807	1
0	3790	829.347007630165	0
0	3812	833.398569046752	1
0	3813	833.905322340289	0
0	3820	835.142200886987	1
0	3821	835.65046595999	0
0	3838	841.428929262279	1
0	3839	841.577471871795	0
0	3843	841.960374697067	1
0	3844	842.194199376648	0
0	3871	850.379749049846	1
0	3872	850.947214766382	0
0	3879	853.891991966065	1
0	3880	854.029281729765	0
0	3899	857.234220334554	1
0	3900	857.43118792017	0
0	3917	863.574304449319	1
0	3918	863.965670118972	0
0	3925	864.765580484335	1
0	3926	865.106533371368	0
0	3938	869.248490214955	1
0	3939	869.659854406876	0
0	3946	873.369448809942	1
0	3947	873.617360442634	0
0	3959	876.590598920471	1
0	3960	877.143759135868	0
0	3967	877.820857013174	1
0	3969	877.821668284545	2
0	3970	877.945364526866	1
0	3974	877.979365950086	2
0	3975	878.562092031719	1
0	3977	878.562092031719	0
0	3988	882.665196814684	1
0	3989	882.705395547978	0
0	3993	882.756529083431	1
0	3994	883.322123052831	0
0	4006	885.136732937359	1
0	4007	885.653267919798	0
0	4014	886.994222770071	1
0	4015	887.583594463256	0
0	4022	888.464451663846	1
0	4024	888.82978789144	2
0	4025	889.001965367241	1
0	4027	889.001965367241	0
0	4030	889.551312345866	1
0	4031	889.618692872094	0
0	4035	889.686688268921	1
0	4037	889.907386128494	2
0	4038	890.235420376947	1
0	4040	890.235420376947	0
0	4046	895.048219362534	1
0	4048	895.123259435299	2
0	4051	895.527010655314	1
0	4052	895.527010655314	0
0	4058	896.767349841931	1
0	4059	896.787990435152	0
0	4078	901.476080017076	1
0	4079	901.82186498862	0
0	4091	903.990570350748	1
0	4092	904.311720918834	0
0	4109	911.529609010161	1
0	4110	911.951905460193	0
0	4122	913.715676900617	1
0	4123	913.838808128805	0
0	4127	913.903766154355	1
0	4128	914.455535633658	0
0	4135	915.970776195976	1
0	4136	916.070273458367	0
0	4140	916.494907312039	1
0	4141	916.68700096322	0
0	4153	919.045471772216	1
0	4154	919.272589871705	0
0	4161	919.913652428628	1
0	4162	920.29012313926	0
0	4169	921.454113791287	1
0	4171	921.742913494931	2
0	4172	921.762395711652	1
0	4174	921.762395711652	0
0	4177	922.220029243401	1
0	4178	922.379123216505	0
0	4192	927.17744905705	1
0	4194	927.405371661948	2
0	4195	927.597140228004	1
0	4197	927.597140228004	0
0	4213	931.092817328299	1
0	4215	931.102375257587	2
0	4216	931.413001479007	1
0	4218	931.413001479007	0
0	4224	932.530122740034	1
0	4226	932.560155981729	2
0	4227	932.869149422191	1
0	4229	932.869149422191	0
0	4235	933.9434797809	1
0	4236	933.982295814811	0
0	4250	937.110700943025	1
0	4251	937.183341003319	0
0	4260	938.783999391219	1
0	4261	939.210732769641	0
0	4273	949.068003894595	1
0	4274	949.492151608009	0
0	4286	951.353771947991	1
0	4287	951.457573898268	0
0	4291	951.743781159891	1
0	4292	952.074301403121	0
0	4304	953.598498891949	1
0	4306	953.840210221475	2
0	4307	954.104690878308	1
0	4309	954.104690878308	0
0	4320	957.759457717652	1
0	4321	958.19156366172	0
0	4328	960.854794345554	1
0	4330	961.026738104886	2
0	4331	961.195003269626	1
0	4333	961.195003269626	0
0	4336	961.528407510442	1
0	4337	961.811730774479	0
0	4344	963.352427722925	1
0	4345	963.903989372684	0
0	4357	967.356622223216	1
0	4359	967.450068211618	2
0	4360	967.648368831406	1
0	4362	967.648368831406	0
0	4368	968.091763939882	1
0	4369	968.333831592106	0
0	4376	969.425292816725	1
0	4378	969.679703219844	2
0	4379	969.77116181359	1
0	4381	969.77116181359	0
0	4384	969.837170134589	1
0	4386	970.060316093317	2
0	4387	970.387889318443	1
0	4389	970.387889318443	0
0	4395	971.372300467708	1
0	4397	971.88912830159	2
0	4398	971.9391158289	1
0	4400	971.9391158289	0
0	4408	974.348831904286	1
0	4409	974.465770280694	0
0	4413	974.899792238815	1
0	4414	975.082497785547	0
0	4431	980.79196721425	1
0	4432	980.885360739118	0
0	4441	981.63874998473	1
0	4442	982.222389329288	0
0	4449	983.568906921549	1
0	4450	983.8578933844	0
0	4457	985.317352247883	1
0	4458	985.618717630336	0
0	4465	986.083786145399	1
0	4466	986.529676110334	0
0	4473	987.503637372377	1
0	4475	988.051449542023	2
0	4476	988.068712710944	1
0	4478	988.068712710944	0
0	4486	990.858394496606	1
0	4487	991.000737509637	0
0	4491	991.21750054722	1
0	4493	991.327680489243	2
0	4494	991.61746501449	1
0	4496	991.61746501449	0
0	4507	993.635927863549	1
0	4509	993.687097423261	2
0	4510	993.914640680088	1
0	4512	993.914640680088	0
0	4529	997.226371590426	1
0	4531	997.453877778001	2
0	4532	997.546425526869	1
0	4534	997.546425526869	0
0	4537	998.079115085769	1
0	4538	998.163153031722	0
0	4542	998.522206661965	1
0	4544	998.635417407699	2
0	4545	998.779880536575	1
0	4547	998.779880536575	0
1	6	3.245361143479	0.011120537745
1	11	3.862088648332	0.440685129274
1	24	6.387055204248	0.354442713106
1	37	8.515280574248	0.223899649153
1	47	9.162331976083	0.532701895076
1	49	9.162331976083	0.345953900389
1	56	10.568051043248	0.135919999807
1	66	12.347765663228	0.576559346151
1	84	14.999677335573	0.306490120707
1	101	18.621822892462	0.567469693032
1	103	18.621822892462	0.044380568291
1	109	19.238550397315	0.658445240853
1	111	19.238550397315	0.164864536021
1	113	19.855277902168	0.667571223445
1	133	22.936116279403	0.393475632878
1	135	22.936116279403	0.333822937596
1	142	23.800868788376	0.520233977957
1	150	26.83941023579	0.545876471432
1	158	29.163851842573	0.062810133734
1	168	31.695671189841	0.077572254506
1	183	39.419112252907	0.230753356218
1	196	41.8108805137	0.500088489017
1	218	47.51721445966	0.548764045175
1	220	47.51721445966	0.231449641646
1	221	47.51721445966	0.136664883804
1	244	55.817241628478	0.569912742127
1	246	55.817241628478	0.458158107503
1	247	55.817241628478	0.106083758448
1	251	56.433969133331	0.471955979128
1	259	59.395509889949	0.466271170219
1	272	61.802548046182	0.562181922769
1	280	63.22209870499	0.297387601085
1	295	65.999236385942	0.476265382603
1	297	65.999236385942	0.454494166278
1	321	73.338045544884	0.529684805555
1	323	73.338045544884	0.051000651226
1	327	73.954773049737	0.49257061268
1	340	80.808850729999	0.22047187856
1	353	83.673575817915	0.032959971388
1	360	84.290303322768	0.501842314336
1	362	84.290303322768	0.285823487755
1	374	87.372050851132	0.192221831509
1	392	95.251538027627	0.214499092692
1	405	98.32870418451	0.280732414637
1	418	106.90458224152	0.573386825212
1	440	112.95015673953	0.260954787567
1	442	112.95015673953	0.217272625507
1	443	112.95015673953	0.060745082827
1	447	113.566884244383	0.3450961225
1	462	119.850897602257	0.569847424677
1	464	119.850897602257	0.35777233727
1	477	120.614452972518	0.636972615611
1	478	120.614452972518	0.343558483637
1	479	120.614452972518	0.254043417692
1	501	126.169437853958	0.092533429643
1	526	133.711021691048	0.182329132016
1	539	135.70635593871	0.438706988398
1	553	136.655880383933	0.353358491943
1	555	136.655880383933	0.341225965285
1	556	136.655880383933	0.324458548525
1	557	136.655880383933	0.102610186353
1	568	137.990756410156	0.324135578629
1	570	137.990756410156	0.092138138148
1	574	138.607483915009	0.078456619903
1	594	146.556816255258	0.547916375693
1	607	150.610074220611	0.370662566587
1	615	151.571007235683	0.459879049577
1	625	152.307839546128	0.231210942644
1	627	152.307839546128	0.155896125975
1	631	152.924567050981	0.364169603513
1	651	155.922497217457	0.073399666562
1	654	156.53922472231	0.66430672183
1	667	158.39091799359	0.013775289544
1	682	161.324176816513	0.008414218674
1	687	161.940904321366	0.157911923667
1	694	162.557631826219	0.453395257012
1	696	162.557631826219	0.118923346293
1	705	165.443696554483	0.116819956548
1	710	166.060424059336	0.119641505478
1	727	170.12586688728	0.577977657394
1	729	170.12586688728	0.342205970563
1	741	171.655345366344	0.25461334267
1	756	175.413671137255	0.284540876642
1	758	175.413671137255	0.232012741225
1	765	176.058610655654	0.459110558102
1	773	177.248567854107	0.416103101364
1	781	177.959085264887	0.205746814925
1	804	182.877965382006	0.335471844688
1	812	184.582006557568	0.008127272971
1	822	187.592152311223	0.542032913115
1	832	188.322482711252	0.573313201309
1	834	188.322482711252	0.06282327012
1	843	192.536598907824	0.294522326007
1	866	196.550890396332	0.015423006175
1	876	198.836019913683	0.091387913206
1	881	199.452747418536	0.266405347224
1	889	201.681697024567	0.551425081514
1	902	204.516568727657	0.168213303882
1	914	207.109506472224	0.381479800166
1	933	209.546562738149	0.485215750508
1	935	209.546562738149	0.080011355915
1	958	215.518426737409	0.468097238443
1	960	215.518426737409	0.445105539578
1	961	215.518426737409	0.340340343546
1	974	216.763113775999	0.537174113942
1	976	216.763113775999	0.425213163472
1	977	216.763113775999	0.085218157022
1	979	217.379841280852	0.65490695568
1	992	219.892668868173	0.349581502888
1	1005	222.710040252875	0.47762347622
1	1043	235.068289573022	0.610663777888
1	1051	237.17601663063	0.520167418618
1	1064	240.2359582184	0.034522015971
1	1076	242.363730606821	0.599806320387
1	1078	242.363730606821	0.342174401881
1	1095	245.60558023653	0.592087238817
1	1105	246.300882254581	0.418896562969
1	1107	246.300882254581	0.108647983552
1	1113	246.917609759434	0.549754787544
1	1115	246.917609759434	0.065832104242
1	1124	248.39159788175	0.305393490656
1	1137	250.869737202781	0.162914711739
1	1147	252.854596758938	0.356605658585
1	1155	254.056706464349	0.253364256025
1	1163	255.510577112756	0.104221860422
1	1168	256.127304617609	0.308487196072
1	1196	262.505619641773	0.319432075045
1	1209	264.414318995454	0.387459838455
1	1217	265.200190585665	0.344234590562
1	1225	265.831349391999	0.450446764797
1	1233	266.546280654702	0.554398418075
1	1246	272.172490915236	0.027998071443
1	1251	272.789218420089	0.227322735833
1	1259	274.466864555384	0.430657604955
1	1267	276.170174061999	0.026928892188
1	1276	276.786901566852	0.292509367246
1	1278	276.786901566852	0.26424284702
1	1279	276.786901566852	0.008661465974
1	1293	279.504717383711	0.615779573056
1	1311	283.416976700022	0.012407195603
1	1321	284.779351851054	0.0163756162
1	1336	287.297399216479	0.070052742397
1	1351	293.366801183051	0.010334831841
1	1369	297.319547389961	0.30556207581
1	1371	297.319547389961	0.162861572766
1	1375	297.936274894814	0.159415850089
1	1382	298.553002399667	0.600578224479
1	1384	298.553002399667	0.129288716546
1	1388	299.16972990452	0.400500491044
1	1401	303.363151768935	0.532143404349
1	1424	310.92015086619	0.140072379575
1	1433	311.536878371043	0.45637233111
1	1435	311.536878371043	0.363340375924
1	1436	311.536878371043	0.235350244326
1	1443	312.353269075983	0.561268048465
1	1456	314.134371855839	0.454899554438
1	1464	314.890562632714	0.574763311901
1	1487	321.029010773836	0.196947140596
1	1495	321.768893923501	0.195278282714
1	1508	324.504199730831	0.596720090332
1	1521	329.455145812739	0.139370353835
1	1528	330.071873317592	0.569894292653
1	1530	330.071873317592	0.134512330731
1	1536	330.688600822445	0.521337494722
1	1538	330.688600822445	0.108157412168
1	1542	331.305328327298	0.522645563081
1	1555	334.739870746453	0.440133042729
1	1563	336.377983622953	0.284957604803
1	1586	343.677690006388	0.614729827409
1	1613	349.668662171339	0.600436349977
1	1615	349.668662171339	0.194244512147
1	1616	349.668662171339	0.036594043893
1	1625	351.175260341457	0.580069019679
1	1633	354.027583350914	0.369968767564
1	1646	356.352628425809	0.134198032618
1	1651	356.969355930662	0.014304313865
1	1666	362.041893979434	0.06964302248
1	1671	362.658621484287	0.360391676514
1	1694	366.969599197388	0.470175646902
1	1729	373.839138735807	0.162150008924
1	1736	374.45586624066	0.639412000139
1	1738	374.45586624066	0.387374638147
1	1739	374.45586624066	0.046156556812
1	1743	375.072593745513	0.284529084137
1	1761	379.463744560027	0.364738200251
1	1769	381.687288745112	0.603737818221
1	1799	389.784835213924	0.711530256568
1	1806	390.793664797485	0.174945725146
1	1816	393.224600057407	0.310605596548
1	1856	402.562051714186	0.494156164204
1	1858	402.562051714186	0.241491032349
1	1877	408.569397381653	0.168211876437
1	1880	409.186124886506	0.62620373953
1	1888	410.659142683804	0.380739880492
1	1896	413.286809897221	0.301328428215
1	1904	415.015789813487	0.484083010058
1	1912	418.750156357549	0.005542033432
1	1919	419.366883862402	0.118731887076
1	1922	419.983611367255	0.705406174715
1	1952	429.144462936277	0.480994875405
1	1954	429.144462936277	0.241680426515
1	1961	432.001444106773	0.366359109224
1	1976	433.53834580849	0.404684409188
1	1978	433.53834580849	0.347245473914
1	1985	434.739237172805	0.147275588636
1	1995	436.137076672533	0.05871372218
1	2004	436.753804177386	0.235825579648
1	2006	436.753804177386	0.102706762686
1	2008	437.370531682239	0.659122194438
1	2021	438.944245173187	0.362860443339
1	2031	439.873057478387	0.530043649243
1	2033	439.873057478387	0.281085047878
1	2050	442.468421692711	0.527931833744
1	2058	443.760232014512	0.344100553319
1	2076	447.882139060376	0.081581884404
1	2081	448.498866565229	0.076483866025
1	2086	449.115594070082	0.369304032073
1	2096	451.624686823556	0.575383998853
1	2098	451.624686823556	0.022973741066
1	2106	452.241414328409	0.443967371381
1	2108	452.241414328409	0.398483783159
1	2109	452.241414328409	0.350146359923
1	2153	464.749022250869	0.612118013307
1	2155	464.749022250869	0.522389781136
1	2162	466.215764875597	0.200092694554
1	2175	468.374810993917	0.108736170391
1	2190	470.872848335183	0.340144299943
1	2203	474.221128555091	0.341197069204
1	2211	475.290849839481	0.221030892243
1	2226	477.515076820535	0.548153975881
1	2228	477.515076820535	0.206188760495
1	2245	481.925759157195	0.002952119015
1	2256	483.463221265037	0.1345712437
1	2266	485.185013746908	0.268083914548
1	2274	486.092528460835	0.611672949783
1	2286	486.874553554428	0.419360271379
1	2288	486.874553554428	0.251066250193
1	2289	486.874553554428	0.070339753421
1	2303	494.997350902552	0.118562132074
1	2328	503.869782177855	0.462419842437
1	2348	507.968089986039	0.540357042129
1	2350	507.968089986039	0.080705087708
1	2354	508.584817490892	0.283052199023
1	2362	509.990521271067	0.386805683482
1	2385	515.663330519735	0.316673322529
1	2400	517.893453774556	0.562760263759
1	2402	517.893453774556	0.295481210691
1	2434	529.764155280241	0.231145625981
1	2442	531.832759528307	0.438154496334
1	2450	533.27705989612	0.020278095578
1	2467	537.189844968088	0.28574429101
1	2469	537.189844968088	0.08780487736
1	2483	540.47980679916	0.12488528808
1	2490	541.096534304013	0.429693111303
1	2492	541.096534304013	0.254759656686
1	2509	545.0253852784	0.408338517608
1	2524	548.146522367058	0.250656232627
1	2526	548.146522367058	0.056396025452
1	2536	548.763249871911	0.446212964236
1	2538	548.763249871911	0.213289078762
1	2539	548.763249871911	0.174932512776
1	2543	549.379977376764	0.668474039461
1	2545	549.379977376764	0.293755214036
1	2574	557.473568421718	0.240875265348
1	2576	557.473568421718	0.08889571618
1	2585	559.24964597354	0.364504230603
1	2593	560.087406930341	0.022301317613
1	2600	560.704134435194	0.138273232158
1	2603	561.320861940047	0.684274876377
1	2616	564.580707598149	0.097428653675
1	2621	565.197435103002	0.363702194853
1	2634	571.990326330727	0.018443896676
1	2639	572.60705383558	0.581949105341
1	2667	577.703119395465	0.437922367192
1	2675	580.4489560232	0.357345247003
1	2711	588.359517290742	0.363587122202
1	2713	588.359517290742	0.278727299017
1	2720	589.375624462657	0.597732912987
1	2728	591.148130694575	0.586255443085
1	2741	594.290180736917	0.040849801969
1	2753	596.815844667058	0.408938316876
1	2755	596.815844667058	0.236537851091
1	2762	600.691380733631	0.299658146929
1	2770	601.656938785278	0.019474933017
1	2780	605.241682553847	0.043410066475
1	2790	608.585271224068	0.194370674872
1	2798	609.778348328625	0.442944885286
1	2808	610.878196110406	0.38868714653
1	2810	610.878196110406	0.169967886781
1	2816	611.494923615259	0.528780872268
1	2818	611.494923615259	0.18920205236
1	2825	613.659844011061	0.039460800915
1	2870	625.638961796736	0.485171297157
1	2878	627.780157072921	0.387722701442
1	2886	628.507949063565	0.478425131763
1	2904	634.327410777957	0.608497499398
1	2939	643.947516235997	0.493481462107
1	2941	643.947516235997	0.354882883383
1	2955	646.035806517018	0.075991261613
1	2960	646.652534021871	0.677320628814
1	2962	646.652534021871	0.0896472405
1	2971	647.995758912138	0.383051855772
1	2984	650.41929304666	0.082779063373
1	2989	651.036020551513	0.503232619202
1	2999	653.273996019156	0.54269722627
1	3001	653.273996019156	0.507167286368
1	3008	654.278770583934	0.212499615239
1	3018	654.916278560108	0.526964605468
1	3020	654.916278560108	0.342709814297
1	3027	658.402052084173	0.067391321962
1	3037	659.862887053132	0.377985072251
1	3047	660.555353874417	0.416336452355
1	3049	660.555353874417	0.336691427937
1	3066	664.528931976183	0.396312241377
1	3081	668.724316698136	0.470186034015
1	3083	668.724316698136	0.435919202029
1	3099	670.193036574007	0.612946137143
1	3101	670.193036574007	0.240830831147
1	3102	670.193036574007	0.20817400123
1	3109	671.797328392527	0.164726035234
1	3116	672.41405589738	0.201016268245
1	3118	672.41405589738	0.011222296438
1	3122	673.030783402233	0.581583163608
1	3130	675.921062329229	0.429628278815
1	3159	686.362263631406	0.102355028363
1	3164	686.978991136259	0.577691744367
1	3172	688.550920027516	0.447251109774
1	3180	690.11320770561	0.57822537769
1	3194	691.432991039456	0.525110569912
1	3196	691.432991039456	0.489153275222
1	3197	691.432991039456	0.200878350456
1	3198	691.432991039456	0.14230076116
1	3204	692.049718544309	0.595028368688
1	3206	692.049718544309	0.184464894981
1	3215	693.362522994447	0.232266462353
1	3217	693.362522994447	0.04696647171
1	3221	693.9792504993	0.511047210046
1	3229	697.61642052405	0.194219149806
1	3237	698.393967357589	0.32055863559
1	3272	709.277154572528	0.537178579301
1	3274	709.277154572528	0.384841887632
1	3286	711.179006299649	0.021233836737
1	3291	711.795733804502	0.001835374115
1	3336	724.854686850813	0.328223299849
1	3356	727.205745467104	0.122941401762
1	3359	727.822472971957	0.730071344768
1	3387	739.483801320495	0.381284719465
1	3395	740.673007482741	0.551309910241
1	3403	742.735315528296	0.403107808756
1	3413	743.722330862832	0.596875726466
1	3415	743.722330862832	0.228024253331
1	3422	745.0414200447	0.224613007366
1	3445	748.914709332387	0.182783120357
1	3473	754.487203779547	0.133708630296
1	3490	758.540363808909	0.434961726573
1	3492	758.540363808909	0.220639469347
1	3506	761.299933881443	0.608482274498
1	3508	761.299933881443	0.200804105337
1	3515	764.044086893973	0.525346051187
1	3550	775.426112743136	0.26239546111
1	3552	775.426112743136	0.241618432554
1	3569	779.933744862186	0.01207213256
1	3596	785.090786192667	0.073764103211
1	3600	785.70751369752	0.32172123489
1	3615	787.071168479985	0.474254578906
1	3617	787.071168479985	0.314460857193
1	3639	799.434190875609	0.549840009651
1	3662	804.470769783359	0.071649194615
1	3669	805.087497288212	0.482749945596
1	3671	805.087497288212	0.25930120983
1	3680	806.415583894314	0.574520133547
1	3682	806.415583894314	0.286279864607
1	3694	812.714218547777	0.445180123846
1	3719	819.346518115723	0.088836861829
1	3726	819.963245620576	0.668140201044
1	3728	819.963245620576	0.329398963053
1	3729	819.963245620576	0.071878835194
1	3735	820.579973125429	0.029581476366
1	3740	821.196700630282	0.62978530018
1	3742	821.196700630282	0.432508477212
1	3769	826.849826993725	0.227244320386
1	3777	827.49782511705	0.059024903682
1	3782	828.114552621903	0.488613315391
1	3790	829.347007630165	0.384727397358
1	3813	833.905322340289	0.506753293537
1	3821	835.65046595999	0.508265073003
1	3839	841.577471871795	0.148542609516
1	3844	842.194199376648	0.233824679581
1	3872	850.947214766382	0.567465716536
1	3880	854.029281729765	0.1372897637
1	3900	857.43118792017	0.196967585616
1	3918	863.965670118972	0.391365669653
1	3926	865.106533371368	0.340952887033
1	3939	869.659854406876	0.411364191921
1	3947	873.617360442634	0.247911632692
1	3960	877.143759135868	0.553160215397
1	3970	877.945364526866	0.124507513692
1	3975	878.562092031719	0.740423747174
1	3977	878.562092031719	0.582726081633
1	3989	882.705395547978	0.040198733294
1	3994	883.322123052831	0.5655939694
1	4007	885.653267919798	0.516534982439
1	4015	887.583594463256	0.589371693185
1	4025	889.001965367241	0.537513703395
1	4027	889.001965367241	0.172177475801
1	4031	889.618692872094	0.067380526228
1	4038	890.235420376947	0.548732108026
1	4040	890.235420376947	0.328034248453
1	4051	895.527010655314	0.47879129278
1	4052	895.527010655314	0.403751220015
1	4059	896.787990435152	0.020640593221
1	4079	901.82186498862	0.345784971544
1	4092	904.311720918834	0.321150568086
1	4110	911.951905460193	0.422296450032
1	4123	913.838808128805	0.123131228188
1	4128	914.455535633658	0.551769479303
1	4136	916.070273458367	0.099497262391
1	4141	916.68700096322	0.192093651181
1	4154	919.272589871705	0.227118099489
1	4162	920.29012313926	0.376470710632
1	4172	921.762395711652	0.308281920365
1	4174	921.762395711652	0.019482216721
1	4178	922.379123216505	0.159093973104
1	4195	927.597140228004	0.419691170954
1	4197	927.597140228004	0.191768566056
1	4216	931.413001479007	0.320184150708
1	4218	931.413001479007	0.31062622142
1	4227	932.869149422191	0.339026682157
1	4229	932.869149422191	0.308993440462
1	4236	933.982295814811	0.038816033911
1	4251	937.183341003319	0.072640060294
1	4261	939.210732769641	0.426733378422
1	4274	949.492151608009	0.424147713414
1	4287	951.457573898268	0.103801950277
1	4292	952.074301403121	0.33052024323
1	4307	954.104690878308	0.506191986359
1	4309	954.104690878308	0.264480656833
1	4321	958.19156366172	0.432105944068
1	4331	961.195003269626	0.340208924072
1	4333	961.195003269626	0.16826516474
1	4337	961.811730774479	0.283323264037
1	4345	963.903989372684	0.551561649759
1	4360	967.648368831406	0.29174660819
1	4362	967.648368831406	0.198300619788
1	4369	968.333831592106	0.242067652224
1	4379	969.77116181359	0.345868996865
1	4381	969.77116181359	0.091458593746
1	4387	970.387889318443	0.550719183854
1	4389	970.387889318443	0.327573225126
1	4398	971.9391158289	0.566815361192
1	4400	971.9391158289	0.04998752731
1	4409	974.465770280694	0.116938376408
1	4414	975.082497785547	0.182705546732
1	4432	980.885360739118	0.093393524868
1	4442	982.222389329288	0.583639344558
1	4450	983.8578933844	0.288986462851
1	4458	985.618717630336	0.301365382453
1	4466	986.529676110334	0.445889964935
1	4476	988.068712710944	0.565075338567
1	4478	988.068712710944	0.017263168921
1	4487	991.000737509637	0.142343013031
1	4494	991.61746501449	0.39996446727
1	4496	991.61746501449	0.289784525247
1	4510	993.914640680088	0.278712816539
1	4512	993.914640680088	0.227543256827
1	4532	997.546425526869	0.320053936443
1	4534	997.546425526869	0.092547748868
1	4538	998.163153031722	0.084037945953
1	4545	998.779880536575	0.25767387461
1	4547	998.779880536575	0.144463128876
2	7	3.245361143479	0.616727504853
2	12	3.862088648332	0.627848042598
2	18	4.733512582652	0.616727504853
2	25	6.387055204248	0.616727504853
2	31	7.449327032414	0.616727504853
2	38	8.515280574248	0.616727504853
2	48	9.162331976083	0.616727504853
2	57	10.568051043248	0.616727504853
2	60	11.184778548101	0.75264750466
2	67	12.347765663228	0.616727504853
2	73	13.052157831152	0.616727504853
2	78	14.341723624325	0.616727504853
2	85	14.999677335573	0.616727504853
2	91	17.989866896345	0.616727504853
2	102	18.621822892462	0.616727504853
2	110	19.238550397315	0.661108073144
2	114	19.855277902168	0.781592040874
2	120	20.518788873993	0.616727504853
2	125	21.299884576822	0.616727504853
2	134	22.936116279403	0.616727504853
2	143	23.800868788376	0.616727504853
2	151	26.83941023579	0.616727504853
2	159	29.163851842573	0.616727504853
2	162	29.780579347426	0.679537638587
2	169	31.695671189841	0.616727504853
2	172	32.312398694694	0.694299759359
2	177	33.044365424958	0.616727504853
2	184	39.419112252907	0.616727504853
2	190	40.786074952583	0.616727504853
2	197	41.8108805137	0.616727504853
2	203	43.280887304474	0.616727504853
2	208	44.281717740114	0.616727504853
2	219	47.51721445966	0.616727504853
2	224	48.133941964513	0.753392388657
2	229	54.387778936838	0.616727504853
2	234	55.045279188174	0.616727504853
2	245	55.817241628478	0.616727504853
2	252	56.433969133331	0.722811263301
2	260	59.395509889949	0.616727504853
2	266	60.18248969233	0.616727504853
2	273	61.802548046182	0.616727504853
2	281	63.22209870499	0.616727504853
2	287	64.474170913837	0.616727504853
2	296	65.999236385942	0.616727504853
2	303	69.577688773392	0.616727504853
2	308	71.139232776949	0.616727504853
2	313	72.421574309083	0.616727504853
2	322	73.338045544884	0.616727504853
2	328	73.954773049737	0.667728156079
2	334	76.720863313482	0.616727504853
2	341	80.808850729999	0.616727504853
2	347	82.112300355112	0.616727504853
2	354	83.673575817915	0.616727504853
2	361	84.290303322768	0.649687476241
2	368	85.748001205869	0.616727504853
2	375	87.372050851132	0.616727504853
2	381	90.64051329443	0.616727504853
2	386	93.487133404946	0.616727504853
2	393	95.251538027627	0.616727504853
2	399	97.30994211622	0.616727504853
2	406	98.32870418451	0.616727504853
2	412	105.862736677231	0.616727504853
2	419	106.90458224152	0.616727504853
2	425	108.193138820827	0.616727504853
2	430	110.374442280848	0.616727504853
2	441	112.95015673953	0.616727504853
2	448	113.566884244383	0.67747258768
2	454	116.86375528288	0.616727504853
2	463	119.850897602257	0.616727504853
2	476	120.50430597735	0.616727504853
2	485	121.771885975023	0.616727504853
2	490	122.812827319688	0.616727504853
2	495	124.390520606911	0.616727504853
2	502	126.169437853958	0.616727504853
2	505	126.786165358811	0.709260934496
2	510	128.019462734945	0.616727504853
2	515	129.332847361356	0.616727504853
2	520	130.368741246717	0.616727504853
2	527	133.711021691048	0.616727504853
2	533	134.548809329452	0.616727504853
2	540	135.70635593871	0.616727504853
2	554	136.655880383933	0.616727504853
2	560	137.272607888786	0.719337691206
2	569	137.990756410156	0.616727504853
2	575	138.607483915009	0.708865643001
2	578	139.224211419862	0.695184124756
2	583	144.053478357911	0.616727504853
2	588	145.444970188895	0.616727504853
2	595	146.556816255258	0.616727504853
2	601	148.134973753683	0.616727504853
2	608	150.610074220611	0.616727504853
2	616	151.571007235683	0.616727504853
2	626	152.307839546128	0.616727504853
2	632	152.924567050981	0.772623630828
2	638	153.677261169848	0.616727504853
2	643	155.179451970473	0.616727504853
2	652	155.922497217457	0.616727504853
2	655	156.53922472231	0.690127171415
2	661	157.212332807334	0.616727504853
2	668	158.39091799359	0.616727504853
2	671	159.007645498443	0.630502794397
2	676	159.812517939417	0.616727504853
2	683	161.324176816513	0.616727504853
2	688	161.940904321366	0.625141723527
2	695	162.557631826219	0.77463942852
2	699	163.174359331072	0.735650851146
2	706	165.443696554483	0.616727504853
2	711	166.060424059336	0.733547461401
2	714	166.677151564189	0.736369010331
2	719	168.92278027139	0.616727504853
2	728	170.12586688728	0.616727504853
2	735	170.877005513158	0.616727504853
2	742	171.655345366344	0.616727504853
2	748	174.169835225467	0.616727504853
2	757	175.413671137255	0.616727504853
2	766	176.058610655654	0.616727504853
2	774	177.248567854107	0.616727504853
2	782	177.959085264887	0.616727504853
2	788	179.537862353387	0.616727504853
2	793	180.859125948685	0.616727504853
2	798	182.250522306476	0.616727504853
2	805	182.877965382006	0.616727504853
2	813	184.582006557568	0.616727504853
2	816	185.198734062421	0.624854777824
2	823	187.592152311223	0.616727504853
2	833	188.322482711252	0.616727504853
2	837	188.939210216105	0.679550774973
2	844	192.536598907824	0.616727504853
2	850	193.67765761555	0.616727504853
2	855	194.613640205158	0.616727504853
2	860	195.551919010956	0.616727504853
2	867	196.550890396332	0.616727504853
2	870	197.167617901185	0.632150511028
2	877	198.836019913683	0.616727504853
2	882	199.452747418536	0.708115418059
2	890	201.681697024567	0.616727504853
2	896	203.613241845424	0.616727504853
2	903	204.516568727657	0.616727504853
2	906	205.13329623251	0.784940808735
2	913	206.999359477056	0.616727504853
2	920	207.823962214572	0.616727504853
2	925	208.773985911909	0.616727504853
2	934	209.546562738149	0.616727504853
2	938	210.163290243002	0.696738860768
2	943	212.527167951259	0.616727504853
2	948	213.970452148253	0.616727504853
2	959	215.518426737409	0.616727504853
2	975	216.763113775999	0.616727504853
2	980	217.379841280852	0.701945661875
2	986	218.588294990229	0.616727504853
2	993	219.892668868173	0.616727504853
2	999	220.676770759234	0.616727504853
2	1006	222.710040252875	0.616727504853
2	1012	225.76964577311	0.616727504853
2	1017	227.51912423404	0.616727504853
2	1022	228.365697054409	0.616727504853
2	1027	230.135016070016	0.616727504853
2	1032	231.183472322458	0.616727504853
2	1037	233.32959420792	0.616727504853
2	1044	235.068289573022	0.616727504853
2	1052	237.17601663063	0.616727504853
2	1058	238.422053057792	0.616727504853
2	1065	240.2359582184	0.616727504853
2	1068	240.852685723253	0.651249520824
2	1077	242.363730606821	0.616727504853
2	1084	243.779807887433	0.616727504853
2	1089	244.536586508512	0.616727504853
2	1096	245.60558023653	0.616727504853
2	1106	246.300882254581	0.616727504853
2	1114	246.917609759434	0.725375488405
2	1118	247.534337264287	0.682559609095
2	1125	248.39159788175	0.616727504853
2	1131	249.758678827185	0.616727504853
2	1138	250.869737202781	0.616727504853
2	1141	251.486464707634	0.779642216592
2	1148	252.854596758938	0.616727504853
2	1156	254.056706464349	0.616727504853
2	1164	255.510577112756	0.616727504853
2	1169	256.127304617609	0.720949365275
2	1175	257.757784441663	0.616727504853
2	1180	259.221690490149	0.616727504853
2	1185	260.750903885893	0.616727504853
2	1190	261.526512520493	0.616727504853
2	1197	262.505619641773	0.616727504853
2	1203	263.40264226519	0.616727504853
2	1210	264.414318995454	0.616727504853
2	1218	265.200190585665	0.616727504853
2	1226	265.831349391999	0.616727504853
2	1234	266.546280654702	0.616727504853
2	1240	269.532272296928	0.616727504853
2	1247	272.172490915236	0.616727504853
2	1252	272.789218420089	0.644725576296
2	1260	274.466864555384	0.616727504853
2	1268	276.170174061999	0.616727504853
2	1277	276.786901566852	0.643656397041
2	1282	277.403629071705	0.625388970827
2	1287	278.690327594094	0.616727504853
2	1294	279.504717383711	0.616727504853
2	1300	280.738982070693	0.616727504853
2	1305	281.706237956694	0.616727504853
2	1312	283.416976700022	0.616727504853
2	1315	284.033704204875	0.629134700456
2	1322	284.779351851054	0.616727504853
2	1325	285.396079355907	0.633103121053
2	1330	286.630235453076	0.616727504853
2	1337	287.297399216479	0.616727504853
2	1340	287.914126721332	0.68678024725
2	1345	292.363967534504	0.616727504853
2	1352	293.366801183051	0.616727504853
2	1355	293.983528687904	0.627062336694
2	1361	295.762756233812	0.616727504853
2	1370	297.319547389961	0.616727504853
2	1376	297.936274894814	0.779589077619
2	1383	298.553002399667	0.776143354942
2	1389	299.16972990452	0.746016221399
2	1395	300.724101234692	0.616727504853
2	1402	303.363151768935	0.616727504853
2	1408	304.95601170284	0.616727504853
2	1413	308.345589992423	0.616727504853
2	1418	310.067666154533	0.616727504853
2	1425	310.92015086619	0.616727504853
2	1434	311.536878371043	0.756799884428
2	1444	312.353269075983	0.616727504853
2	1450	313.376316798904	0.616727504853
2	1457	314.134371855839	0.616727504853
2	1465	314.890562632714	0.616727504853
2	1471	316.990030583292	0.616727504853
2	1476	319.283162862041	0.616727504853
2	1481	320.366367672571	0.616727504853
2	1488	321.029010773836	0.616727504853
2	1496	321.768893923501	0.616727504853
2	1502	323.160456884385	0.616727504853
2	1509	324.504199730831	0.616727504853
2	1515	326.612519711922	0.616727504853
2	1522	329.455145812739	0.616727504853
2	1529	330.071873317592	0.756097858688
2	1537	330.688600822445	0.751239835584
2	1543	331.305328327298	0.724884917021
2	1549	332.6551758034	0.616727504853
2	1556	334.739870746453	0.616727504853
2	1564	336.377983622953	0.616727504853
2	1570	338.132078069937	0.616727504853
2	1575	340.233235758051	0.616727504853
2	1580	341.316902199998	0.616727504853
2	1587	343.677690006388	0.616727504853
2	1593	345.217404875134	0.616727504853
2	1598	347.929580720684	0.616727504853
2	1603	348.791062234015	0.616727504853
2	1614	349.668662171339	0.616727504853
2	1619	350.285389676192	0.653321548746
2	1626	351.175260341457	0.616727504853
2	1634	354.027583350914	0.616727504853
2	1640	355.380950979774	0.616727504853
2	1647	356.352628425809	0.616727504853
2	1652	356.969355930662	0.750925537471
2	1655	357.586083435515	0.631031818718
2	1660	358.570288797733	0.616727504853
2	1667	362.041893979434	0.616727504853
2	1672	362.658621484287	0.686370527333
2	1678	364.023274295368	0.616727504853
2	1683	364.961077266761	0.616727504853
2	1688	366.114602147033	0.616727504853
2	1695	366.969599197388	0.616727504853
2	1701	367.72402459781	0.616727504853
2	1706	368.593428147182	0.616727504853
2	1711	369.531948703731	0.616727504853
2	1716	370.87714279917	0.616727504853
2	1721	372.035517159428	0.616727504853
2	1730	373.839138735807	0.616727504853
2	1737	374.45586624066	0.778877513777
2	1744	375.072593745513	0.662884061665
2	1750	375.964916218028	0.616727504853
2	1755	377.626700745504	0.616727504853
2	1762	379.463744560027	0.616727504853
2	1770	381.687288745112	0.616727504853
2	1776	382.641794419997	0.616727504853
2	1781	385.394630249241	0.616727504853
2	1786	387.279015733833	0.616727504853
2	1791	388.762934659753	0.616727504853
2	1798	389.674688218756	0.616727504853
2	1807	390.793664797485	0.616727504853
2	1810	391.410392302338	0.791673229999
2	1817	393.224600057407	0.616727504853
2	1823	394.837258327456	0.616727504853
2	1828	396.518546901693	0.616727504853
2	1833	397.695817879387	0.616727504853
2	1838	399.15428884657	0.616727504853
2	1843	400.838338863983	0.616727504853
2	1848	401.944484185081	0.616727504853
2	1857	402.562051714186	0.616727504853
2	1864	406.143537112942	0.616727504853
2	1869	407.343461237165	0.616727504853
2	1878	408.569397381653	0.616727504853
2	1881	409.186124886506	0.78493938129
2	1889	410.659142683804	0.616727504853
2	1897	413.286809897221	0.616727504853
2	1905	415.015789813487	0.616727504853
2	1913	418.750156357549	0.616727504853
2	1920	419.366883862402	0.622269538285
2	1923	419.983611367255	0.735459391929
2	1929	421.641059364637	0.616727504853
2	1934	424.141670588483	0.616727504853
2	1939	425.442335415275	0.616727504853
2	1944	427.321197150006	0.616727504853
2	1953	429.144462936277	0.616727504853
2	1962	432.001444106773	0.616727504853
2	1968	432.760958316113	0.616727504853
2	1977	433.53834580849	0.616727504853
2	1986	434.739237172805	0.616727504853
2	1989	435.355964677658	0.764003093489
2	1996	436.137076672533	0.616727504853
2	2005	436.753804177386	0.675441227033
2	2009	437.370531682239	0.719434267539
2	2015	438.11198039095	0.616727504853
2	2022	438.944245173187	0.616727504853
2	2032	439.873057478387	0.616727504853
2	2039	440.494889991855	0.616727504853
2	2044	441.340697512336	0.616727504853
2	2051	442.468421692711	0.616727504853
2	2059	443.760232014512	0.616727504853
2	2065	445.573745185189	0.616727504853
2	2070	447.204727836911	0.616727504853
2	2077	447.882139060376	0.616727504853
2	2082	448.498866565229	0.698309389257
2	2087	449.115594070082	0.693211370878
2	2097	451.624686823556	0.616727504853
2	2107	452.241414328409	0.639701245919
2	2115	454.690929245024	0.616727504853
2	2120	455.439364604678	0.616727504853
2	2125	456.515778862974	0.616727504853
2	2130	458.435509137866	0.616727504853
2	2135	459.778582456179	0.616727504853
2	2140	461.095261271176	0.616727504853
2	2145	462.210602174001	0.616727504853
2	2154	464.749022250869	0.616727504853
2	2163	466.215764875597	0.616727504853
2	2169	467.637654932938	0.616727504853
2	2176	468.374810993917	0.616727504853
2	2179	468.99153849877	0.725463675244
2	2184	470.086762883405	0.616727504853
2	2191	470.872848335183	0.616727504853
2	2197	472.449045528356	0.616727504853
2	2204	474.221128555091	0.616727504853
2	2212	475.290849839481	0.616727504853
2	2218	476.669939939517	0.616727504853
2	2227	477.515076820535	0.616727504853
2	2234	479.312707797215	0.616727504853
2	2239	480.923086896726	0.616727504853
2	2246	481.925759157195	0.616727504853
2	2249	482.542486662048	0.619679623868
2	2257	483.463221265037	0.616727504853
2	2260	484.07994876989	0.751298748553
2	2267	485.185013746908	0.616727504853
2	2275	486.092528460835	0.616727504853
2	2287	486.874553554428	0.616727504853
2	2292	487.491281059281	0.687067258274
2	2297	491.496987471864	0.616727504853
2	2304	494.997350902552	0.616727504853
2	2307	495.614078407405	0.735289636927
2	2312	497.523492692539	0.616727504853
2	2317	499.367683510892	0.616727504853
2	2322	501.514759356253	0.616727504853
2	2329	503.869782177855	0.616727504853
2	2335	504.746790501859	0.616727504853
2	2340	505.913320444433	0.616727504853
2	2349	507.968089986039	0.616727504853
2	2355	508.584817490892	0.697432592561
2	2363	509.990521271067	0.616727504853
2	2369	511.273293779923	0.616727504853
2	2374	513.779970901712	0.616727504853
2	2379	514.792024363342	0.616727504853
2	2386	515.663330519735	0.616727504853
2	2392	516.376429528154	0.616727504853
2	2401	517.893453774556	0.616727504853
2	2408	520.693507745779	0.616727504853
2	2413	523.671637352971	0.616727504853
2	2418	524.522085579293	0.616727504853
2	2423	525.592832168557	0.616727504853
2	2428	528.665800004039	0.616727504853
2	2435	529.764155280241	0.616727504853
2	2443	531.832759528307	0.616727504853
2	2451	533.27705989612	0.616727504853
2	2454	533.893787400973	0.637005600431
2	2459	536.132421494029	0.616727504853
2	2468	537.189844968088	0.616727504853
2	2472	537.806572472941	0.704532382213
2	2477	538.875618601139	0.616727504853
2	2484	540.47980679916	0.616727504853
2	2491	541.096534304013	0.741612792933
2	2498	542.852136423812	0.616727504853
2	2503	543.479288509996	0.616727504853
2	2510	545.0253852784	0.616727504853
2	2516	547.452104063353	0.616727504853
2	2525	548.146522367058	0.616727504853
2	2537	548.763249871911	0.673123530305
2	2544	549.379977376764	0.791660017629
2	2551	550.570132618985	0.616727504853
2	2556	552.396073624884	0.616727504853
2	2561	553.074662675169	0.616727504853
2	2566	554.313402438681	0.616727504853
2	2575	557.473568421718	0.616727504853
2	2579	558.090295926571	0.705623221033
2	2586	559.24964597354	0.616727504853
2	2594	560.087406930341	0.616727504853
2	2601	560.704134435194	0.639028822466
2	2604	561.320861940047	0.755000737011
2	2610	562.023232197963	0.616727504853
2	2617	564.580707598149	0.616727504853
2	2622	565.197435103002	0.714156158528
2	2628	569.143065050228	0.616727504853
2	2635	571.990326330727	0.616727504853
2	2640	572.60705383558	0.635171401529
2	2646	573.505679656102	0.616727504853
2	2651	574.613385073774	0.616727504853
2	2656	575.69077735817	0.616727504853
2	2661	576.69124234327	0.616727504853
2	2668	577.703119395465	0.616727504853
2	2676	580.4489560232	0.616727504853
2	2682	581.985652446259	0.616727504853
2	2687	582.761022137419	0.616727504853
2	2693	583.942976108739	0.616727504853
2	2698	584.958822647196	0.616727504853
2	2703	586.701985833559	0.616727504853
2	2712	588.359517290742	0.616727504853
2	2721	589.375624462657	0.616727504853
2	2729	591.148130694575	0.616727504853
2	2735	592.267311197447	0.616727504853
2	2742	594.290180736917	0.616727504853
2	2745	594.90690824177	0.657577306822
2	2754	596.815844667058	0.616727504853
2	2763	600.691380733631	0.616727504853
2	2771	601.656938785278	0.616727504853
2	2774	602.273666290131	0.63620243787
2	2781	605.241682553847	0.616727504853
2	2784	605.8584100587	0.660137571328
2	2791	608.585271224068	0.616727504853
2	2799	609.778348328625	0.616727504853
2	2809	610.878196110406	0.616727504853
2	2817	611.494923615259	0.786695391634
2	2826	613.659844011061	0.616727504853
2	2829	614.276571515914	0.656188305768
2	2834	615.095204220486	0.616727504853
2	2839	617.249124993159	0.616727504853
2	2844	618.063329943974	0.616727504853
2	2849	619.325308310471	0.616727504853
2	2854	621.991381644201	0.616727504853
2	2859	623.317502791584	0.616727504853
2	2864	624.134180547189	0.616727504853
2	2871	625.638961796736	0.616727504853
2	2879	627.780157072921	0.616727504853
2	2887	628.507949063565	0.616727504853
2	2893	630.260722201093	0.616727504853
2	2898	632.801809842127	0.616727504853
2	2905	634.327410777957	0.616727504853
2	2911	635.121475879431	0.616727504853
2	2916	638.382488996513	0.616727504853
2	2921	639.044221962398	0.616727504853
2	2926	639.848171731589	0.616727504853
2	2931	643.165674999894	0.616727504853
2	2940	643.947516235997	0.616727504853
2	2947	645.070320676862	0.616727504853
2	2956	646.035806517018	0.616727504853
2	2961	646.652534021871	0.692718766466
2	2965	647.269261526724	0.706374745353
2	2972	647.995758912138	0.616727504853
2	2978	648.804597010273	0.616727504853
2	2985	650.41929304666	0.616727504853
2	2990	651.036020551513	0.699506568226
2	3000	653.273996019156	0.616727504853
2	3009	654.278770583934	0.616727504853
2	3019	654.916278560108	0.616727504853
2	3028	658.402052084173	0.616727504853
2	3031	659.018779589026	0.684118826815
2	3038	659.862887053132	0.616727504853
2	3048	660.555353874417	0.616727504853
2	3055	661.685069339866	0.616727504853
2	3060	663.246258912235	0.616727504853
2	3067	664.528931976183	0.616727504853
2	3073	667.498021694102	0.616727504853
2	3082	668.724316698136	0.616727504853
2	3089	669.449942264113	0.616727504853
2	3100	670.193036574007	0.616727504853
2	3110	671.797328392527	0.616727504853
2	3117	672.41405589738	0.781453540087
2	3123	673.030783402233	0.627949801291
2	3131	675.921062329229	0.616727504853
2	3137	678.519805048174	0.616727504853
2	3142	680.367504642147	0.616727504853
2	3147	682.382904078603	0.616727504853
2	3152	683.962174282444	0.616727504853
2	3160	686.362263631406	0.616727504853
2	3165	686.978991136259	0.719082533216
2	3173	688.550920027516	0.616727504853
2	3181	690.11320770561	0.616727504853
2	3195	691.432991039456	0.616727504853
2	3205	692.049718544309	0.759028266013
2	3216	693.362522994447	0.616727504853
2	3222	693.9792504993	0.663693976563
2	3230	697.61642052405	0.616727504853
2	3238	698.393967357589	0.616727504853
2	3244	699.659870076064	0.616727504853
2	3249	701.440417967308	0.616727504853
2	3254	703.431650020248	0.616727504853
2	3259	705.143702285998	0.616727504853
2	3264	708.344091309465	0.616727504853
2	3273	709.277154572528	0.616727504853
2	3280	709.927226995901	0.616727504853
2	3287	711.179006299649	0.616727504853
2	3292	711.795733804502	0.63796134159
2	3295	712.412461309355	0.618562878968
2	3300	716.494303109187	0.616727504853
2	3305	717.165590830389	0.616727504853
2	3310	718.169832574643	0.616727504853
2	3315	719.158632602865	0.616727504853
2	3320	719.839965945187	0.616727504853
2	3325	721.05209350067	0.616727504853
2	3330	722.661812386261	0.616727504853
2	3337	724.854686850813	0.616727504853
2	3343	725.50690382508	0.616727504853
2	3348	726.532949739079	0.616727504853
2	3357	727.205745467104	0.616727504853
2	3360	727.822472971957	0.739668906615
2	3366	731.359158641211	0.616727504853
2	3371	732.516907236425	0.616727504853
2	3376	734.399614567981	0.616727504853
2	3381	737.824541253194	0.616727504853
2	3388	739.483801320495	0.616727504853
2	3396	740.673007482741	0.616727504853
2	3404	742.735315528296	0.616727504853
2	3414	743.722330862832	0.616727504853
2	3423	745.0414200447	0.616727504853
2	3429	745.741271280363	0.616727504853
2	3434	746.380742184549	0.616727504853
2	3439	747.351543768344	0.616727504853
2	3446	748.914709332387	0.616727504853
2	3452	749.821542241371	0.616727504853
2	3457	750.757088495516	0.616727504853
2	3462	752.272841509258	0.616727504853
2	3467	752.939216861183	0.616727504853
2	3474	754.487203779547	0.616727504853
2	3477	755.1039312844	0.750436135149
2	3482	756.370235113911	0.616727504853
2	3491	758.540363808909	0.616727504853
2	3498	760.412490416964	0.616727504853
2	3507	761.299933881443	0.616727504853
2	3516	764.044086893973	0.616727504853
2	3522	765.220274304066	0.616727504853
2	3527	766.423859892722	0.616727504853
2	3532	770.118373919968	0.616727504853
2	3537	770.820935212722	0.616727504853
2	3542	772.27511594675	0.616727504853
2	3551	775.426112743136	0.616727504853
2	3558	776.717226978463	0.616727504853
2	3563	777.546422389385	0.616727504853
2	3570	779.933744862186	0.616727504853
2	3573	780.550472367039	0.628799637413
2	3578	781.829211996624	0.616727504853
2	3583	783.166538937976	0.616727504853
2	3588	784.168973006373	0.616727504853
2	3593	784.980639197499	0.616727504853
2	3601	785.70751369752	0.690491608064
2	3607	786.432043930574	0.616727504853
2	3616	787.071168479985	0.616727504853
2	3623	788.991478361796	0.616727504853
2	3628	793.200048959654	0.616727504853
2	3633	794.891033365521	0.616727504853
2	3640	799.434190875609	0.616727504853
2	3646	800.270010620522	0.616727504853
2	3651	801.40152273606	0.616727504853
2	3656	802.302371609167	0.616727504853
2	3663	804.470769783359	0.616727504853
2	3670	805.087497288212	0.688376699468
2	3681	806.415583894314	0.616727504853
2	3688	809.18745727393	0.616727504853
2	3695	812.714218547777	0.616727504853
2	3701	813.751547320253	0.616727504853
2	3706	815.35321002489	0.616727504853
2	3711	818.488149266056	0.616727504853
2	3720	819.346518115723	0.616727504853
2	3727	819.963245620576	0.705564366682
2	3736	820.579973125429	0.688606340047
2	3741	821.196700630282	0.646308981219
2	3748	822.239855463251	0.616727504853
2	3753	823.13164950961	0.616727504853
2	3758	823.907395500539	0.616727504853
2	3763	825.233700456287	0.616727504853
2	3770	826.849826993725	0.616727504853
2	3778	827.49782511705	0.616727504853
2	3783	828.114552621903	0.675752408535
2	3791	829.347007630165	0.616727504853
2	3797	830.536382586077	0.616727504853
2	3802	832.141922167019	0.616727504853
2	3807	832.900220621293	0.616727504853
2	3814	833.905322340289	0.616727504853
2	3822	835.65046595999	0.616727504853
2	3828	837.702684722676	0.616727504853
2	3833	840.899251934188	0.616727504853
2	3840	841.577471871795	0.616727504853
2	3845	842.194199376648	0.765270114369
2	3851	842.825310148482	0.616727504853
2	3856	843.930409232726	0.616727504853
2	3861	846.078351732954	0.616727504853
2	3866	847.382597100923	0.616727504853
2	3873	850.947214766382	0.616727504853
2	3881	854.029281729765	0.616727504853
2	3884	854.646009234618	0.754017268553
2	3889	855.504361002147	0.616727504853
2	3894	856.196937595659	0.616727504853
2	3901	857.43118792017	0.616727504853
2	3907	860.506240120912	0.616727504853
2	3912	861.27611108487	0.616727504853
2	3919	863.965670118972	0.616727504853
2	3927	865.106533371368	0.616727504853
2	3933	866.093530276204	0.616727504853
2	3940	869.659854406876	0.616727504853
2	3948	873.617360442634	0.616727504853
2	3954	876.309359848708	0.616727504853
2	3961	877.143759135868	0.616727504853
2	3971	877.945364526866	0.616727504853
2	3976	878.562092031719	0.741235018545
2	3983	880.433812568773	0.616727504853
2	3990	882.705395547978	0.616727504853
2	3995	883.322123052831	0.656926238147
2	4001	884.360367138138	0.616727504853
2	4008	885.653267919798	0.616727504853
2	4016	887.583594463256	0.616727504853
2	4026	889.001965367241	0.616727504853
2	4032	889.618692872094	0.788904980654
2	4039	890.235420376947	0.684108031081
2	4050	895.416863660146	0.616727504853
2	4060	896.787990435152	0.616727504853
2	4063	897.404717940005	0.637368098074
2	4068	899.043678014927	0.616727504853
2	4073	899.869457491807	0.616727504853
2	4080	901.82186498862	0.616727504853
2	4086	903.501451037832	0.616727504853
2	4093	904.311720918834	0.616727504853
2	4099	905.500665427836	0.616727504853
2	4104	907.637239901161	0.616727504853
2	4111	911.951905460193	0.616727504853
2	4117	912.801955102634	0.616727504853
2	4124	913.838808128805	0.616727504853
2	4129	914.455535633658	0.739858733041
2	4137	916.070273458367	0.616727504853
2	4142	916.68700096322	0.716224767244
2	4148	918.543337362755	0.616727504853
2	4155	919.272589871705	0.616727504853
2	4163	920.29012313926	0.616727504853
2	4173	921.762395711652	0.616727504853
2	4179	922.379123216505	0.636209721574
2	4182	922.995850721358	0.775821477957
2	4187	924.005702859095	0.616727504853
2	4196	927.597140228004	0.616727504853
2	4203	928.984954032045	0.616727504853
2	4208	929.899970884568	0.616727504853
2	4217	931.413001479007	0.616727504853
2	4228	932.869149422191	0.616727504853
2	4237	933.982295814811	0.616727504853
2	4240	934.599023319664	0.655543538764
2	4245	935.31378852646	0.616727504853
2	4252	937.183341003319	0.616727504853
2	4255	937.800068508172	0.689367565147
2	4262	939.210732769641	0.616727504853
2	4268	943.633827781467	0.616727504853
2	4275	949.492151608009	0.616727504853
2	4281	950.388651345216	0.616727504853
2	4288	951.457573898268	0.616727504853
2	4293	952.074301403121	0.72052945513
2	4299	953.451461983851	0.616727504853
2	4308	954.104690878308	0.616727504853
2	4315	956.904347260518	0.616727504853
2	4322	958.19156366172	0.616727504853
2	4332	961.195003269626	0.616727504853
2	4338	961.811730774479	0.784992669593
2	4346	963.903989372684	0.616727504853
2	4352	965.529894968512	0.616727504853
2	4361	967.648368831406	0.616727504853
2	4370	968.333831592106	0.616727504853
2	4380	969.77116181359	0.616727504853
2	4388	970.387889318443	0.708186098599
2	4399	971.9391158289	0.616727504853
2	4403	972.555843333753	0.666715032163
2	4410	974.465770280694	0.616727504853
2	4415	975.082497785547	0.733665881261
2	4421	976.585013801182	0.616727504853
2	4426	978.020601390879	0.616727504853
2	4433	980.885360739118	0.616727504853
2	4436	981.502088243971	0.710121029721
2	4443	982.222389329288	0.616727504853
2	4451	983.8578933844	0.616727504853
2	4459	985.618717630336	0.616727504853
2	4467	986.529676110334	0.616727504853
2	4477	988.068712710944	0.616727504853
2	4481	988.685440215797	0.633990673774
2	4488	991.000737509637	0.616727504853
2	4495	991.61746501449	0.759070517884
2	4502	993.253674489537	0.616727504853
2	4511	993.914640680088	0.616727504853
2	4518	995.740158438514	0.616727504853
2	4523	996.574978633985	0.616727504853
2	4533	997.546425526869	0.616727504853
2	4539	998.163153031722	0.709275253721
2	4546	998.779880536575	0.700765450806
2	4550	999.396608041428	0.761190633729
3	7	3.245361143479	0
3	12	3.862088648332	0.011120537745
3	18	4.733512582652	0
3	25	6.387055204248	0
3	31	7.449327032414	0
3	38	8.515280574248	0
3	48	9.162331976083	0
3	57	10.568051043248	0
3	60	11.184778548101	0.135919999807
3	67	12.347765663228	0
3	73	13.052157831152	0
3	78	14.341723624325	0
3	85	14.999677335573	0
3	91	17.989866896345	0
3	102	18.621822892462	0
3	110	19.238550397315	0.044380568291
3	114	19.855277902168	0.164864536021
3	120	20.518788873993	0
3	125	21.299884576822	0
3	134	22.936116279403	0
3	143	23.800868788376	0
3	151	26.83941023579	0
3	159	29.163851842573	0
3	162	29.780579347426	0.062810133734
3	169	31.695671189841	0
3	172	32.312398694694	0.077572254506
3	177	33.044365424958	0
3	184	39.419112252907	0
3	190	40.786074952583	0
3	197	41.8108805137	0
3	203	43.280887304474	0
3	208	44.281717740114	0
3	219	47.51721445966	0
3	224	48.133941964513	0.136664883804
3	229	54.387778936838	0
3	234	55.045279188174	0
3	245	55.817241628478	0
3	252	56.433969133331	0.106083758448
3	260	59.395509889949	0
3	266	60.18248969233	0
3	273	61.802548046182	0
3	281	63.22209870499	0
3	287	64.474170913837	0
3	296	65.999236385942	0
3	303	69.577688773392	0
3	308	71.139232776949	0
3	313	72.421574309083	0
3	322	73.338045544884	0
3	328	73.954773049737	0.051000651226
3	334	76.720863313482	0
3	341	80.808850729999	0
3	347	82.112300355112	0
3	354	83.673575817915	0
3	361	84.290303322768	0.032959971388
3	368	85.748001205869	0
3	375	87.372050851132	0
3	381	90.64051329443	0
3	386	93.487133404946	0
3	393	95.251538027627	0
3	399	97.30994211622	0
3	406	98.32870418451	0
3	412	105.862736677231	0
3	419	106.90458224152	0
3	425	108.193138820827	0
3	430	110.374442280848	0
3	441	112.95015673953	0
3	448	113.566884244383	0.060745082827
3	454	116.86375528288	0
3	463	119.850897602257	0
3	476	120.50430597735	0
3	485	121.771885975023	0
3	490	122.812827319688	0
3	495	124.390520606911	0
3	502	126.169437853958	0
3	505	126.786165358811	0.092533429643
3	510	128.019462734945	0
3	515	129.332847361356	0
3	520	130.368741246717	0
3	527	133.711021691048	0
3	533	134.548809329452	0
3	540	135.70635593871	0
3	554	136.655880383933	0
3	560	137.272607888786	0.102610186353
3	569	137.990756410156	0
3	575	138.607483915009	0.092138138148
3	578	139.224211419862	0.078456619903
3	583	144.053478357911	0
3	588	145.444970188895	0
3	595	146.556816255258	0
3	601	148.134973753683	0
3	608	150.610074220611	0
3	616	151.571007235683	0
3	626	152.307839546128	0
3	632	152.924567050981	0.155896125975
3	638	153.677261169848	0
3	643	155.179451970473	0
3	652	155.922497217457	0
3	655	156.53922472231	0.073399666562
3	661	157.212332807334	0
3	668	158.39091799359	0
3	671	159.007645498443	0.013775289544
3	676	159.812517939417	0
3	683	161.324176816513	0
3	688	161.940904321366	0.008414218674
3	695	162.557631826219	0.157911923667
3	699	163.174359331072	0.118923346293
3	706	165.443696554483	0
3	711	166.060424059336	0.116819956548
3	714	166.677151564189	0.119641505478
3	719	168.92278027139	0
3	728	170.12586688728	0
3	735	170.877005513158	0
3	742	171.655345366344	0
3	748	174.169835225467	0
3	757	175.413671137255	0
3	766	176.058610655654	0
3	774	177.248567854107	0
3	782	177.959085264887	0
3	788	179.537862353387	0
3	793	180.859125948685	0
3	798	182.250522306476	0
3	805	182.877965382006	0
3	813	184.582006557568	0
3	816	185.198734062421	0.008127272971
3	823	187.592152311223	0
3	833	188.322482711252	0
3	837	188.939210216105	0.06282327012
3	844	192.536598907824	0
3	850	193.67765761555	0
3	855	194.613640205158	0
3	860	195.551919010956	0
3	867	196.550890396332	0
3	870	197.167617901185	0.015423006175
3	877	198.836019913683	0
3	882	199.452747418536	0.091387913206
3	890	201.681697024567	0
3	896	203.613241845424	0
3	903	204.516568727657	0
3	906	205.13329623251	0.168213303882
3	913	206.999359477056	0
3	920	207.823962214572	0
3	925	208.773985911909	0
3	934	209.546562738149	0
3	938	210.163290243002	0.080011355915
3	943	212.527167951259	0
3	948	213.970452148253	0
3	959	215.518426737409	0
3	975	216.763113775999	0
3	980	217.379841280852	0.085218157022
3	986	218.588294990229	0
3	993	219.892668868173	0
3	999	220.676770759234	0
3	1006	222.710040252875	0
3	1012	225.76964577311	0
3	1017	227.51912423404	0
3	1022	228.365697054409	0
3	1027	230.135016070016	0
3	1032	231.183472322458	0
3	1037	233.32959420792	0
3	1044	235.068289573022	0
3	1052	237.17601663063	0
3	1058	238.422053057792	0
3	1065	240.2359582184	0
3	1068	240.852685723253	0.034522015971
3	1077	242.363730606821	0
3	1084	243.779807887433	0
3	1089	244.536586508512	0
3	1096	245.60558023653	0
3	1106	246.300882254581	0
3	1114	246.917609759434	0.108647983552
3	1118	247.534337264287	0.065832104242
3	1125	248.39159788175	0
3	1131	249.758678827185	0
3	1138	250.869737202781	0
3	1141	251.486464707634	0.162914711739
3	1148	252.854596758938	0
3	1156	254.056706464349	0
3	1164	255.510577112756	0
3	1169	256.127304617609	0.104221860422
3	1175	257.757784441663	0
3	1180	259.221690490149	0
3	1185	260.750903885893	0
3	1190	261.526512520493	0
3	1197	262.505619641773	0
3	1203	263.40264226519	0
3	1210	264.414318995454	0
3	1218	265.200190585665	0
3	1226	265.831349391999	0
3	1234	266.546280654702	0
3	1240	269.532272296928	0
3	1247	272.172490915236	0
3	1252	272.789218420089	0.027998071443
3	1260	274.466864555384	0
3	1268	276.170174061999	0
3	1277	276.786901566852	0.026928892188
3	1282	277.403629071705	0.008661465974
3	1287	278.690327594094	0
3	1294	279.504717383711	0
3	1300	280.738982070693	0
3	1305	281.706237956694	0
3	1312	283.416976700022	0
3	1315	284.033704204875	0.012407195603
3	1322	284.779351851054	0
3	1325	285.396079355907	0.0163756162
3	1330	286.630235453076	0
3	1337	287.297399216479	0
3	1340	287.914126721332	0.070052742397
3	1345	292.363967534504	0
3	1352	293.366801183051	0
3	1355	293.983528687904	0.010334831841
3	1361	295.762756233812	0
3	1370	297.319547389961	0
3	1376	297.936274894814	0.162861572766
3	1383	298.553002399667	0.159415850089
3	1389	299.16972990452	0.129288716546
3	1395	300.724101234692	0
3	1402	303.363151768935	0
3	1408	304.95601170284	0
3	1413	308.345589992423	0
3	1418	310.067666154533	0
3	1425	310.92015086619	0
3	1434	311.536878371043	0.140072379575
3	1444	312.353269075983	0
3	1450	313.376316798904	0
3	1457	314.134371855839	0
3	1465	314.890562632714	0
3	1471	316.990030583292	0
3	1476	319.283162862041	0
3	1481	320.366367672571	0
3	1488	321.029010773836	0
3	1496	321.768893923501	0
3	1502	323.160456884385	0
3	1509	324.504199730831	0
3	1515	326.612519711922	0
3	1522	329.455145812739	0
3	1529	330.071873317592	0.139370353835
3	1537	330.688600822445	0.134512330731
3	1543	331.305328327298	0.108157412168
3	1549	332.6551758034	0
3	1556	334.739870746453	0
3	1564	336.377983622953	0
3	1570	338.132078069937	0
3	1575	340.233235758051	0
3	1580	341.316902199998	0
3	1587	343.677690006388	0
3	1593	345.217404875134	0
3	1598	347.929580720684	0
3	1603	348.791062234015	0
3	1614	349.668662171339	0
3	1619	350.285389676192	0.036594043893
3	1626	351.175260341457	0
3	1634	354.027583350914	0
3	1640	355.380950979774	0
3	1647	356.352628425809	0
3	1652	356.969355930662	0.134198032618
3	1655	357.586083435515	0.014304313865
3	1660	358.570288797733	0
3	1667	362.041893979434	0
3	1672	362.658621484287	0.06964302248
3	1678	364.023274295368	0
3	1683	364.961077266761	0
3	1688	366.114602147033	0
3	1695	366.969599197388	0
3	1701	367.72402459781	0
3	1706	368.593428147182	0
3	1711	369.531948703731	0
3	1716	370.87714279917	0
3	1721	372.035517159428	0
3	1730	373.839138735807	0
3	1737	374.45586624066	0.162150008924
3	1744	375.072593745513	0.046156556812
3	1750	375.964916218028	0
3	1755	377.626700745504	0
3	1762	379.463744560027	0
3	1770	381.687288745112	0
3	1776	382.641794419997	0
3	1781	385.394630249241	0
3	1786	387.279015733833	0
3	1791	388.762934659753	0
3	1798	389.674688218756	0
3	1807	390.793664797485	0
3	1810	391.410392302338	0.174945725146
3	1817	393.224600057407	0
3	1823	394.837258327456	0
3	1828	396.518546901693	0
3	1833	397.695817879387	0
3	1838	399.15428884657	0
3	1843	400.838338863983	0
3	1848	401.944484185081	0
3	1857	402.562051714186	0
3	1864	406.143537112942	0
3	1869	407.343461237165	0
3	1878	408.569397381653	0
3	1881	409.186124886506	0.168211876437
3	1889	410.659142683804	0
3	1897	413.286809897221	0
3	1905	415.015789813487	0
3	1913	418.750156357549	0
3	1920	419.366883862402	0.005542033432
3	1923	419.983611367255	0.118731887076
3	1929	421.641059364637	0
3	1934	424.141670588483	0
3	1939	425.442335415275	0
3	1944	427.321197150006	0
3	1953	429.144462936277	0
3	1962	432.001444106773	0
3	1968	432.760958316113	0
3	1977	433.53834580849	0
3	1986	434.739237172805	0
3	1989	435.355964677658	0.147275588636
3	1996	436.137076672533	0
3	2005	436.753804177386	0.05871372218
3	2009	437.370531682239	0.102706762686
3	2015	438.11198039095	0
3	2022	438.944245173187	0
3	2032	439.873057478387	0
3	2039	440.494889991855	0
3	2044	441.340697512336	0
3	2051	442.468421692711	0
3	2059	443.760232014512	0
[...]
7	4026	889.001965367241	0
7	4032	889.618692872094	0
7	4039	890.235420376947	0
7	4050	895.416863660146	0
7	4060	896.787990435152	0
7	4063	897.404717940005	0
7	4068	899.043678014927	0
7	4073	899.869457491807	0
7	4080	901.82186498862	0
7	4086	903.501451037832	0
7	4093	904.311720918834	0
7	4099	905.500665427836	0
7	4104	907.637239901161	0
7	4111	911.951905460193	0
7	4117	912.801955102634	0
7	4124	913.838808128805	0
7	4129	914.455535633658	0
7	4137	916.070273458367	0
7	4142	916.68700096322	0
7	4148	918.543337362755	0
7	4155	919.272589871705	0
7	4163	920.29012313926	0
7	4173	921.762395711652	0
7	4179	922.379123216505	0
7	4182	922.995850721358	0
7	4187	924.005702859095	0
7	4196	927.597140228004	0
7	4203	928.984954032045	0
7	4208	929.899970884568	0
7	4217	931.413001479007	0
7	4228	932.869149422191	0
7	4237	933.982295814811	0
7	4240	934.599023319664	0
7	4245	935.31378852646	0
7	4252	937.183341003319	0
7	4255	937.800068508172	0
7	4262	939.210732769641	0
7	4268	943.633827781467	0
7	4275	949.492151608009	0
7	4281	950.388651345216	0
7	4288	951.457573898268	0
7	4293	952.074301403121	0
7	4299	953.451461983851	0
7	4308	954.104690878308	0
7	4315	956.904347260518	0
7	4322	958.19156366172	0
7	4332	961.195003269626	0
7	4338	961.811730774479	0
7	4346	963.903989372684	0
7	4352	965.529894968512	0
7	4361	967.648368831406	0
7	4370	968.333831592106	0
7	4380	969.77116181359	0
7	4388	970.387889318443	0
7	4399	971.9391158289	0
7	4403	972.555843333753	0
7	4410	974.465770280694	0
7	4415	975.082497785547	0
7	4421	976.585013801182	0
7	4426	978.020601390879	0
7	4433	980.885360739118	0
7	4436	981.502088243971	0
7	4443	982.222389329288	0
7	4451	983.8578933844	0
7	4459	985.618717630336	0
7	4467	986.529676110334	0
7	4477	988.068712710944	0
7	4481	988.685440215797	0
7	4488	991.000737509637	0
7	4495	991.61746501449	0
7	4502	993.253674489537	0
7	4511	993.914640680088	0
7	4518	995.740158438514	0
7	4523	996.574978633985	0
7	4533	997.546425526869	0
7	4539	998.163153031722	0
7	4546	998.779880536575	0
7	4550	999.396608041428	0
8	7	3.245361143479	0
8	12	3.862088648332	0
8	18	4.733512582652	0
8	25	6.387055204248	0
8	31	7.449327032414	0
8	38	8.515280574248	0
8	48	9.162331976083	0
8	57	10.568051043248	0
8	60	11.184778548101	0
8	67	12.347765663228	0
8	73	13.052157831152	0
8	78	14.341723624325	0
8	85	14.999677335573	0
8	91	17.989866896345	0
8	102	18.621822892462	0
8	110	19.238550397315	0
8	114	19.855277902168	0
8	120	20.518788873993	0
8	125	21.299884576822	0
8	134	22.936116279403	0
8	143	23.800868788376	0
8	151	26.83941023579	0
8	159	29.163851842573	0
8	162	29.780579347426	0
8	169	31.695671189841	0
8	172	32.312398694694	0
8	177	33.044365424958	0
8	184	39.419112252907	0
8	190	40.786074952583	0
8	197	41.8108805137	0
8	203	43.280887304474	0
8	208	44.281717740114	0
8	219	47.51721445966	0
8	224	48.133941964513	0
8	229	54.387778936838	0
8	234	55.045279188174	0
8	245	55.817241628478	0
8	252	56.433969133331	0
8	260	59.395509889949	0
8	266	60.18248969233	0
8	273	61.802548046182	0
8	281	63.22209870499	0
8	287	64.474170913837	0
8	296	65.999236385942	0
8	303	69.577688773392	0
8	308	71.139232776949	0
8	313	72.421574309083	0
8	322	73.338045544884	0
8	328	73.954773049737	0
8	334	76.720863313482	0
8	341	80.808850729999	0
8	347	82.112300355112	0
8	354	83.673575817915	0
8	361	84.290303322768	0
8	368	85.748001205869	0
8	375	87.372050851132	0
8	381	90.64051329443	0
8	386	93.487133404946	0
8	393	95.251538027627	0
8	399	97.30994211622	0
8	406	98.32870418451	0
8	412	105.862736677231	0
8	419	106.90458224152	0
8	425	108.193138820827	0
8	430	110.374442280848	0
8	441	112.95015673953	0
8	448	113.566884244383	0
8	454	116.86375528288	0
8	463	119.850897602257	0
8	476	120.50430597735	0
8	485	121.771885975023	0
8	490	122.812827319688	0
8	495	124.390520606911	0
8	502	126.169437853958	0
8	505	126.786165358811	0
8	510	128.019462734945	0
8	515	129.332847361356	0
8	520	130.368741246717	0
8	527	133.711021691048	0
8	533	134.548809329452	0
8	540	135.70635593871	0
8	554	136.655880383933	0
8	560	137.272607888786	0
8	569	137.990756410156	0
8	575	138.607483915009	0
8	578	139.224211419862	0
8	583	144.053478357911	0
8	588	145.444970188895	0
8	595	146.556816255258	0
8	601	148.134973753683	0
8	608	150.610074220611	0
8	616	151.571007235683	0
8	626	152.307839546128	0
8	632	152.924567050981	0
8	638	153.677261169848	0
8	643	155.179451970473	0
8	652	155.922497217457	0
8	655	156.53922472231	0
8	661	157.212332807334	0
8	668	158.39091799359	0
8	671	159.007645498443	0
8	676	159.812517939417	0
8	683	161.324176816513	0
8	688	161.940904321366	0
8	695	162.557631826219	0
8	699	163.174359331072	0
8	706	165.443696554483	0
8	711	166.060424059336	0
8	714	166.677151564189	0
8	719	168.92278027139	0
8	728	170.12586688728	0
8	735	170.877005513158	0
8	742	171.655345366344	0
8	748	174.169835225467	0
8	757	175.413671137255	0
8	766	176.058610655654	0
8	774	177.248567854107	0
8	782	177.959085264887	0
8	788	179.537862353387	0
8	793	180.859125948685	0
8	798	182.250522306476	0
8	805	182.877965382006	0
8	813	184.582006557568	0
8	816	185.198734062421	0
8	823	187.592152311223	0
8	833	188.322482711252	0
8	837	188.939210216105	0
8	844	192.536598907824	0
8	850	193.67765761555	0
8	855	194.613640205158	0
8	860	195.551919010956	0
8	867	196.550890396332	0
8	870	197.167617901185	0
8	877	198.836019913683	0
8	882	199.452747418536	0
8	890	201.681697024567	0
8	896	203.613241845424	0
8	903	204.516568727657	0
8	906	205.13329623251	0
8	913	206.999359477056	0
8	920	207.823962214572	0
8	925	208.773985911909	0
8	934	209.546562738149	0
8	938	210.163290243002	0
8	943	212.527167951259	0
8	948	213.970452148253	0
8	959	215.518426737409	0
8	975	216.763113775999	0
8	980	217.379841280852	0
8	986	218.588294990229	0
8	993	219.892668868173	0
8	999	220.676770759234	0
8	1006	222.710040252875	0
8	1012	225.76964577311	0
8	1017	227.51912423404	0
8	1022	228.365697054409	0
8	1027	230.135016070016	0
8	1032	231.183472322458	0
8	1037	233.32959420792	0
8	1044	235.068289573022	0
8	1052	237.17601663063	0
8	1058	238.422053057792	0
8	1065	240.2359582184	0
8	1068	240.852685723253	0
8	1077	242.363730606821	0
8	1084	243.779807887433	0
8	1089	244.536586508512	0
8	1096	245.60558023653	0
8	1106	246.300882254581	0
8	1114	246.917609759434	0
8	1118	247.534337264287	0
8	1125	248.39159788175	0
8	1131	249.758678827185	0
8	1138	250.869737202781	0
8	1141	251.486464707634	0
8	1148	252.854596758938	0
8	1156	254.056706464349	0
8	1164	255.510577112756	0
8	1169	256.127304617609	0
8	1175	257.757784441663	0
8	1180	259.221690490149	0
8	1185	260.750903885893	0
8	1190	261.526512520493	0
8	1197	262.505619641773	0
8	1203	263.40264226519	0
8	1210	264.414318995454	0
8	1218	265.200190585665	0
8	1226	265.831349391999	0
8	1234	266.546280654702	0
8	1240	269.532272296928	0
8	1247	272.172490915236	0
8	1252	272.789218420089	0
8	1260	274.466864555384	0
8	1268	276.170174061999	0
8	1277	276.786901566852	0
8	1282	277.403629071705	0
8	1287	278.690327594094	0
8	1294	279.504717383711	0
8	1300	280.738982070693	0
8	1305	281.706237956694	0
8	1312	283.416976700022	0
8	1315	284.033704204875	0
8	1322	284.779351851054	0
8	1325	285.396079355907	0
8	1330	286.630235453076	0
8	1337	287.297399216479	0
8	1340	287.914126721332	0
8	1345	292.363967534504	0
8	1352	293.366801183051	0
8	1355	293.983528687904	0
8	1361	295.762756233812	0
8	1370	297.319547389961	0
8	1376	297.936274894814	0
8	1383	298.553002399667	0
8	1389	299.16972990452	0
8	1395	300.724101234692	0
8	1402	303.363151768935	0
8	1408	304.95601170284	0
8	1413	308.345589992423	0
8	1418	310.067666154533	0
8	1425	310.92015086619	0
8	1434	311.536878371043	0
8	1444	312.353269075983	0
8	1450	313.376316798904	0
8	1457	314.134371855839	0
8	1465	314.890562632714	0
8	1471	316.990030583292	0
8	1476	319.283162862041	0
8	1481	320.366367672571	0
8	1488	321.029010773836	0
8	1496	321.768893923501	0
8	1502	323.160456884385	0
8	1509	324.504199730831	0
8	1515	326.612519711922	0
8	1522	329.455145812739	0
8	1529	330.071873317592	0
8	1537	330.688600822445	0
8	1543	331.305328327298	0
8	1549	332.6551758034	0
8	1556	334.739870746453	0
8	1564	336.377983622953	0
8	1570	338.132078069937	0
8	1575	340.233235758051	0
8	1580	341.316902199998	0
8	1587	343.677690006388	0
8	1593	345.217404875134	0
8	1598	347.929580720684	0
8	1603	348.791062234015	0
8	1614	349.668662171339	0
8	1619	350.285389676192	0
8	1626	351.175260341457	0
8	1634	354.027583350914	0
8	1640	355.380950979774	0
8	1647	356.352628425809	0
8	1652	356.969355930662	0
8	1655	357.586083435515	0
8	1660	358.570288797733	0
8	1667	362.041893979434	0
8	1672	362.658621484287	0
8	1678	364.023274295368	0
8	1683	364.961077266761	0
8	1688	366.114602147033	0
8	1695	366.969599197388	0
8	1701	367.72402459781	0
8	1706	368.593428147182	0
8	1711	369.531948703731	0
8	1716	370.87714279917	0
8	1721	372.035517159428	0
8	1730	373.839138735807	0
8	1737	374.45586624066	0
8	1744	375.072593745513	0
8	1750	375.964916218028	0
8	1755	377.626700745504	0
8	1762	379.463744560027	0
8	1770	381.687288745112	0
8	1776	382.641794419997	0
8	1781	385.394630249241	0
8	1786	387.279015733833	0
8	1791	388.762934659753	0
8	1798	389.674688218756	0
8	1807	390.793664797485	0
8	1810	391.410392302338	0
8	1817	393.224600057407	0
8	1823	394.837258327456	0
8	1828	396.518546901693	0
8	1833	397.695817879387	0
8	1838	399.15428884657	0
8	1843	400.838338863983	0
8	1848	401.944484185081	0
8	1857	402.562051714186	0
8	1864	406.143537112942	0
8	1869	407.343461237165	0
8	1878	408.569397381653	0
8	1881	409.186124886506	0
8	1889	410.659142683804	0
8	1897	413.286809897221	0
8	1905	415.015789813487	0
8	1913	418.750156357549	0
8	1920	419.366883862402	0
8	1923	419.983611367255	0
8	1929	421.641059364637	0
8	1934	424.141670588483	0
8	1939	425.442335415275	0
8	1944	427.321197150006	0
8	1953	429.144462936277	0
8	1962	432.001444106773	0
8	1968	432.760958316113	0
8	1977	433.53834580849	0
8	1986	434.739237172805	0
8	1989	435.355964677658	0
8	1996	436.137076672533	0
8	2005	436.753804177386	0
8	2009	437.370531682239	0
8	2015	438.11198039095	0
8	2022	438.944245173187	0
8	2032	439.873057478387	0
8	2039	440.494889991855	0
8	2044	441.340697512336	0
8	2051	442.468421692711	0
8	2059	443.760232014512	0
8	2065	445.573745185189	0
8	2070	447.204727836911	0
8	2077	447.882139060376	0
8	2082	448.498866565229	0
8	2087	449.115594070082	0
8	2097	451.624686823556	0
8	2107	452.241414328409	0
8	2115	454.690929245024	0
8	2120	455.439364604678	0
8	2125	456.515778862974	0
8	2130	458.435509137866	0
8	2135	459.778582456179	0
8	2140	461.095261271176	0
8	2145	462.210602174001	0
8	2154	464.749022250869	0
8	2163	466.215764875597	0
8	2169	467.637654932938	0
8	2176	468.374810993917	0
8	2179	468.99153849877	0
8	2184	470.086762883405	0
8	2191	470.872848335183	0
8	2197	472.449045528356	0
8	2204	474.221128555091	0
8	2212	475.290849839481	0
8	2218	476.669939939517	0
8	2227	477.515076820535	0
8	2234	479.312707797215	0
8	2239	480.923086896726	0
8	2246	481.925759157195	0
8	2249	482.542486662048	0
8	2257	483.463221265037	0
8	2260	484.07994876989	0
8	2267	485.185013746908	0
8	2275	486.092528460835	0
8	2287	486.874553554428	0
8	2292	487.491281059281	0
8	2297	491.496987471864	0
8	2304	494.997350902552	0
8	2307	495.614078407405	0
8	2312	497.523492692539	0
8	2317	499.367683510892	0
8	2322	501.514759356253	0
8	2329	503.869782177855	0
8	2335	504.746790501859	0
8	2340	505.913320444433	0
8	2349	507.968089986039	0
8	2355	508.584817490892	0
8	2363	509.990521271067	0
8	2369	511.273293779923	0
8	2374	513.779970901712	0
8	2379	514.792024363342	0
8	2386	515.663330519735	0
8	2392	516.376429528154	0
8	2401	517.893453774556	0
8	2408	520.693507745779	0
8	2413	523.671637352971	0
8	2418	524.522085579293	0
8	2423	525.592832168557	0
8	2428	528.665800004039	0
8	2435	529.764155280241	0
8	2443	531.832759528307	0
8	2451	533.27705989612	0
8	2454	533.893787400973	0
8	2459	536.132421494029	0
8	2468	537.189844968088	0
8	2472	537.806572472941	0
8	2477	538.875618601139	0
8	2484	540.47980679916	0
8	2491	541.096534304013	0
8	2498	542.852136423812	0
8	2503	543.479288509996	0
8	2510	545.0253852784	0
8	2516	547.452104063353	0
8	2525	548.146522367058	0
8	2537	548.763249871911	0
8	2544	549.379977376764	0
8	2551	550.570132618985	0
8	2556	552.396073624884	0
8	2561	553.074662675169	0
8	2566	554.313402438681	0
8	2575	557.473568421718	0
8	2579	558.090295926571	0
8	2586	559.24964597354	0
8	2594	560.087406930341	0
8	2601	560.704134435194	0
8	2604	561.320861940047	0
8	2610	562.023232197963	0
8	2617	564.580707598149	0
8	2622	565.197435103002	0
8	2628	569.143065050228	0
8	2635	571.990326330727	0
8	2640	572.60705383558	0
8	2646	573.505679656102	0
8	2651	574.613385073774	0
8	2656	575.69077735817	0
8	2661	576.69124234327	0
8	2668	577.703119395465	0
8	2676	580.4489560232	0
8	2682	581.985652446259	0
8	2687	582.761022137419	0
8	2693	583.942976108739	0
8	2698	584.958822647196	0
8	2703	586.701985833559	0
8	2712	588.359517290742	0
8	2721	589.375624462657	0
8	2729	591.148130694575	0
8	2735	592.267311197447	0
8	2742	594.290180736917	0
8	2745	594.90690824177	0
8	2754	596.815844667058	0
8	2763	600.691380733631	0
8	2771	601.656938785278	0
8	2774	602.273666290131	0
8	2781	605.241682553847	0
8	2784	605.8584100587	0
8	2791	608.585271224068	0
8	2799	609.778348328625	0
8	2809	610.878196110406	0
8	2817	611.494923615259	0
8	2826	613.659844011061	0
8	2829	614.276571515914	0
8	2834	615.095204220486	0
8	2839	617.249124993159	0
8	2844	618.063329943974	0
8	2849	619.325308310471	0
8	2854	621.991381644201	0
8	2859	623.317502791584	0
8	2864	624.134180547189	0
8	2871	625.638961796736	0
8	2879	627.780157072921	0
8	2887	628.507949063565	0
8	2893	630.260722201093	0
8	2898	632.801809842127	0
8	2905	634.327410777957	0
8	2911	635.121475879431	0
8	2916	638.382488996513	0
8	2921	639.044221962398	0
8	2926	639.848171731589	0
8	2931	643.165674999894	0
8	2940	643.947516235997	0
8	2947	645.070320676862	0
8	2956	646.035806517018	0
8	2961	646.652534021871	0
8	2965	647.269261526724	0
8	2972	647.995758912138	0
8	2978	648.804597010273	0
8	2985	650.41929304666	0
8	2990	651.036020551513	0
8	3000	653.273996019156	0
8	3009	654.278770583934	0
8	3019	654.916278560108	0
8	3028	658.402052084173	0
8	3031	659.018779589026	0
8	3038	659.862887053132	0
8	3048	660.555353874417	0
8	3055	661.685069339866	0
8	3060	663.246258912235	0
8	3067	664.528931976183	0
8	3073	667.498021694102	0
8	3082	668.724316698136	0
8	3089	669.449942264113	0
8	3100	670.193036574007	0
8	3110	671.797328392527	0
8	3117	672.41405589738	0
8	3123	673.030783402233	0
8	3131	675.921062329229	0
8	3137	678.519805048174	0
8	3142	680.367504642147	0
8	3147	682.382904078603	0
8	3152	683.962174282444	0
8	3160	686.362263631406	0
8	3165	686.978991136259	0
8	3173	688.550920027516	0
8	3181	690.11320770561	0
8	3195	691.432991039456	0
8	3205	692.049718544309	0
8	3216	693.362522994447	0
8	3222	693.9792504993	0
8	3230	697.61642052405	0
8	3238	698.393967357589	0
8	3244	699.659870076064	0
8	3249	701.440417967308	0
8	3254	703.431650020248	0
8	3259	705.143702285998	0
8	3264	708.344091309465	0
8	3273	709.277154572528	0
8	3280	709.927226995901	0
8	3287	711.179006299649	0
8	3292	711.795733804502	0
8	3295	712.412461309355	0
8	3300	716.494303109187	0
8	3305	717.165590830389	0
8	3310	718.169832574643	0
8	3315	719.158632602865	0
8	3320	719.839965945187	0
8	3325	721.05209350067	0
8	3330	722.661812386261	0
8	3337	724.854686850813	0
8	3343	725.50690382508	0
8	3348	726.532949739079	0
8	3357	727.205745467104	0
8	3360	727.822472971957	0
8	3366	731.359158641211	0
8	3371	732.516907236425	0
8	3376	734.399614567981	0
8	3381	737.824541253194	0
8	3388	739.483801320495	0
8	3396	740.673007482741	0
8	3404	742.735315528296	0
8	3414	743.722330862832	0
8	3423	745.0414200447	0
8	3429	745.741271280363	0
8	3434	746.380742184549	0
8	3439	747.351543768344	0
8	3446	748.914709332387	0
8	3452	749.821542241371	0
8	3457	750.757088495516	0
8	3462	752.272841509258	0
8	3467	752.939216861183	0
8	3474	754.487203779547	0
8	3477	755.1039312844	0
8	3482	756.370235113911	0
8	3491	758.540363808909	0
8	3498	760.412490416964	0
8	3507	761.299933881443	0
8	3516	764.044086893973	0
8	3522	765.220274304066	0
8	3527	766.423859892722	0
8	3532	770.118373919968	0
8	3537	770.820935212722	0
8	3542	772.27511594675	0
8	3551	775.426112743136	0
8	3558	776.717226978463	0
8	3563	777.546422389385	0
8	3570	779.933744862186	0
8	3573	780.550472367039	0
8	3578	781.829211996624	0
8	3583	783.166538937976	0
8	3588	784.168973006373	0
8	3593	784.980639197499	0
8	3601	785.70751369752	0
8	3607	786.432043930574	0
8	3616	787.071168479985	0
8	3623	788.991478361796	0
8	3628	793.200048959654	0
8	3633	794.891033365521	0
8	3640	799.434190875609	0
8	3646	800.270010620522	0
8	3651	801.40152273606	0
8	3656	802.302371609167	0
8	3663	804.470769783359	0
8	3670	805.087497288212	0
8	3681	806.415583894314	0
8	3688	809.18745727393	0
8	3695	812.714218547777	0
8	3701	813.751547320253	0
8	3706	815.35321002489	0
8	3711	818.488149266056	0
8	3720	819.346518115723	0
8	3727	819.963245620576	0
8	3736	820.579973125429	0
8	3741	821.196700630282	0
8	3748	822.239855463251	0
8	3753	823.13164950961	0
8	3758	823.907395500539	0
8	3763	825.233700456287	0
8	3770	826.849826993725	0
8	3778	827.49782511705	0
8	3783	828.114552621903	0
8	3791	829.347007630165	0
8	3797	830.536382586077	0
8	3802	832.141922167019	0
8	3807	832.900220621293	0
8	3814	833.905322340289	0
8	3822	835.65046595999	0
8	3828	837.702684722676	0
8	3833	840.899251934188	0
8	3840	841.577471871795	0
8	3845	842.194199376648	0
8	3851	842.825310148482	0
8	3856	843.930409232726	0
8	3861	846.078351732954	0
8	3866	847.382597100923	0
8	3873	850.947214766382	0
8	3881	854.029281729765	0
8	3884	854.646009234618	0
8	3889	855.504361002147	0
8	3894	856.196937595659	0
8	3901	857.43118792017	0
8	3907	860.506240120912	0
8	3912	861.27611108487	0
8	3919	863.965670118972	0
8	3927	865.106533371368	0
8	3933	866.093530276204	0
8	3940	869.659854406876	0
8	3948	873.617360442634	0
8	3954	876.309359848708	0
8	3961	877.143759135868	0
8	3971	877.945364526866	0
8	3976	878.562092031719	0
8	3983	880.433812568773	0
8	3990	882.705395547978	0
8	3995	883.322123052831	0
8	4001	884.360367138138	0
8	4008	885.653267919798	0
8	4016	887.583594463256	0
8	4026	889.001965367241	0
8	4032	889.618692872094	0
8	4039	890.235420376947	0
8	4050	895.416863660146	0
8	4060	896.787990435152	0
8	4063	897.404717940005	0
8	4068	899.043678014927	0
8	4073	899.869457491807	0
8	4080	901.82186498862	0
8	4086	903.501451037832	0
8	4093	904.311720918834	0
8	4099	905.500665427836	0
8	4104	907.637239901161	0
8	4111	911.951905460193	0
8	4117	912.801955102634	0
8	4124	913.838808128805	0
8	4129	914.455535633658	0
8	4137	916.070273458367	0
8	4142	916.68700096322	0
8	4148	918.543337362755	0
8	4155	919.272589871705	0
8	4163	920.29012313926	0
8	4173	921.762395711652	0
8	4179	922.379123216505	0
8	4182	922.995850721358	0
8	4187	924.005702859095	0
8	4196	927.597140228004	0
8	4203	928.984954032045	0
8	4208	929.899970884568	0
8	4217	931.413001479007	0
8	4228	932.869149422191	0
8	4237	933.982295814811	0
8	4240	934.599023319664	0
8	4245	935.31378852646	0
8	4252	937.183341003319	0
8	4255	937.800068508172	0
8	4262	939.210732769641	0
8	4268	943.633827781467	0
8	4275	949.492151608009	0
8	4281	950.388651345216	0
8	4288	951.457573898268	0
8	4293	952.074301403121	0
8	4299	953.451461983851	0
8	4308	954.104690878308	0
8	4315	956.904347260518	0
8	4322	958.19156366172	0
8	4332	961.195003269626	0
8	4338	961.811730774479	0
8	4346	963.903989372684	0
8	4352	965.529894968512	0
8	4361	967.648368831406	0
8	4370	968.333831592106	0
8	4380	969.77116181359	0
8	4388	970.387889318443	0
8	4399	971.9391158289	0
8	4403	972.555843333753	0
8	4410	974.465770280694	0
8	4415	975.082497785547	0
8	4421	976.585013801182	0
8	4426	978.020601390879	0
8	4433	980.885360739118	0
8	4436	981.502088243971	0
8	4443	982.222389329288	0
8	4451	983.8578933844	0
8	4459	985.618717630336	0
8	4467	986.529676110334	0
8	4477	988.068712710944	0
8	4481	988.685440215797	0
8	4488	991.000737509637	0
8	4495	991.61746501449	0
8	4502	993.253674489537	0
8	4511	993.914640680088	0
8	4518	995.740158438514	0
8	4523	996.574978633985	0
8	4533	997.546425526869	0
8	4539	998.163153031722	0
8	4546	998.779880536575	0
8	4550	999.396608041428	0

