version 2
run General-354-20240201-11:04:28-40057
attr configname General
attr datetime 20240201-11:04:28
attr experiment General
attr inifile main.ini
attr iterationvars "$0=1.2, $1=3.5, $2=70"
attr iterationvarsf 1.2,3.5,70-
attr measurement "$0=1.2, $1=3.5, $2=70"
attr network Rete
attr processid 40057
attr repetition 14
attr replication #14
attr resultdir results
attr runnumber 354
attr seedset 354
param Rete.lambda 1.2
param Rete.a 0.3s
param Rete.b 3.5s
param Rete.c 0.1s
param Rete.d 0.3s
param Rete.mu 3.0
param Rete.source2.interArrivalTime exponential(1s/lambda)
param Rete.source2.jobServiceTime exponential(1s/mu)
param Rete.source2.deadline uniform(a,b)
param Rete.server2.j 70
param Rete.server2.V uniform(c,d)

vector 0 Rete.passiveQueue queueLength:vector ETV
attr interpolationmode sample-hold
attr title "queue length, vector"
vector 1 Rete.sink lifeTime:vector ETV
attr interpolationmode none
attr title "lifetime of arrived jobs, vector"
attr unit s
vector 2 Rete.sink totalQueueingTime:vector ETV
attr interpolationmode none
attr title "the total time spent in queues by arrived jobs, vector"
attr unit s
vector 3 Rete.sink queuesVisited:vector ETV
attr interpolationmode none
attr title "the total number of queues visited by arrived jobs, vector"
vector 4 Rete.sink totalServiceTime:vector ETV
attr interpolationmode none
attr title "the total time spent  by arrived jobs, vector"
attr unit s
vector 5 Rete.sink totalDelayTime:vector ETV
attr interpolationmode none
attr title "the total time spent in delay nodes by arrived jobs, vector"
attr unit s
vector 6 Rete.sink delaysVisited:vector ETV
attr interpolationmode none
attr title "the total number of delays visited by arrived jobs, vector"
vector 7 Rete.sink generation:vector ETV
attr interpolationmode none
attr title "the generation of the arrived jobs, vector"
vector 8 Rete.passiveQueue queueingTime:vector ETV
attr interpolationmode none
attr title "queueing time at dequeue, vector"
attr unit s
0	0	0	0
0	30	6.174920913801	1
0	31	6.371803754025	0
0	75	14.036367595542	1
0	76	14.289268782936	0
0	85	15.849876644814	1
0	86	16.071243215038	0
0	150	28.707139226937	1
0	151	28.807120560398	0
0	165	30.749406039708	1
0	167	30.847031075424	2
0	169	30.957867755843	3
0	170	30.969875657767	2
0	173	31.222927307503	1
0	177	31.305669923091	2
0	178	31.475978957239	1
0	181	31.729030606975	0
0	200	34.448892115728	1
0	202	34.469628656286	2
0	203	34.506878431795	1
0	206	34.759930081531	0
0	215	35.220196899623	1
0	216	35.415403061795	0
0	235	37.331167584583	1
0	236	37.371740539376	0
0	240	37.499021017736	1
0	241	37.624792189112	0
0	275	42.281121330839	1
0	276	42.474308989803	0
0	300	46.966997230411	1
0	301	47.021212196199	0
0	350	53.738671318861	1
0	353	54.156523529775	0
0	381	58.519727803788	1
0	382	58.626722547565	0
0	386	58.785805503473	1
0	387	58.879774197301	0
0	396	60.769332905261	1
0	397	60.803776670994	0
0	426	66.219709471904	1
0	427	66.342245985492	0
0	431	66.440185785565	1
0	433	66.577105669879	2
0	434	66.595297635228	1
0	437	66.848349284964	0
0	441	67.024156185332	1
0	442	67.1014009347	0
0	461	70.99546676982	1
0	463	71.038203004633	2
0	464	71.19855786051	1
0	467	71.451609510246	0
0	511	84.00792161135	1
0	512	84.105315959534	0
0	516	84.23281216822	1
0	517	84.35836760927	0
0	531	87.651740905696	1
0	533	87.707324531004	2
0	534	87.817550614495	1
0	538	87.961544046302	2
0	540	88.02851643953	3
0	541	88.070602264231	2
0	544	88.323653913967	1
0	547	88.576705563703	0
0	551	88.73783177862	1
0	553	88.743149053366	2
0	554	88.829757213439	1
0	557	89.082808863175	0
0	576	95.324777570349	1
0	577	95.378757239736	0
0	586	95.817872002808	1
0	587	95.93838718039	0
0	591	95.983219672132	1
0	592	96.191438830126	0
0	601	97.61498438317	1
0	602	97.730381511061	0
0	606	97.760297173803	1
0	607	97.983433160797	0
0	616	98.706972336196	1
0	618	98.726189514003	2
0	619	98.85516028498	1
0	622	99.108211934716	0
0	636	101.431737167787	1
0	638	101.437519784607	2
0	640	101.67808159756	3
0	641	101.682209037039	2
0	644	101.935260686775	1
0	647	102.188312336511	0
0	656	104.996874279194	1
0	657	105.039464520573	0
0	701	113.834179453608	1
0	704	114.220473836394	0
0	712	115.719728713164	1
0	713	115.730760548915	0
0	717	115.944439013808	1
0	718	115.983812198651	0
0	747	121.931018376488	1
0	749	122.160782293828	2
0	750	122.166456799246	1
0	754	122.34550767592	2
0	755	122.419508448982	1
0	759	122.529320759641	2
0	760	122.672560098718	1
0	764	122.840514885468	2
0	765	122.925611748454	1
0	769	123.166594109295	2
0	771	123.166678049163	3
0	773	123.174935529773	4
0	774	123.17866339819	3
0	777	123.431715047926	2
0	780	123.684766697662	1
0	784	123.693905668578	2
0	785	123.937818347398	1
0	788	124.190869997134	0
0	797	124.807380627555	1
0	798	124.82586841755	0
0	832	130.259056159018	1
0	834	130.264494510569	2
0	835	130.497976534912	1
0	838	130.751028184648	0
0	877	136.189449699577	1
0	878	136.369282272314	0
0	892	138.719153903726	1
0	894	138.755609033161	2
0	895	138.796343972096	1
0	898	139.049395621832	0
0	927	149.32710594159	1
0	929	149.460127845834	2
0	931	149.479483409903	3
0	932	149.575134227496	2
0	936	149.680839015596	3
0	937	149.828185877232	2
0	940	150.081237526968	1
0	943	150.334289176704	0
0	977	157.892227604252	1
0	978	158.089385229527	0
0	987	158.598010295813	1
0	989	158.700529443921	2
0	990	158.758166942291	1
0	993	159.011218592027	0
0	997	159.116832066415	1
0	998	159.264270241763	0
0	1037	165.437615443871	1
0	1038	165.512417167624	0
0	1054	167.580101782623	1
0	1055	167.622672040988	0
0	1063	170.36775230794	1
0	1064	170.427425103747	0
0	1068	170.436029205649	1
0	1069	170.680476753483	0
0	1083	171.883347159472	1
0	1084	172.072634271208	0
0	1123	178.481345003627	1
0	1124	178.626227189823	0
0	1133	179.396957229587	1
0	1134	179.533225426345	0
0	1138	179.540316109104	1
0	1139	179.786277076081	0
0	1148	181.293697881927	1
0	1149	181.390429273091	0
0	1163	183.373438022175	1
0	1164	183.512820436805	0
0	1178	185.01226977453	1
0	1179	185.032293344695	0
0	1208	191.392643442868	1
0	1209	191.463668066525	0
0	1253	198.640648105122	1
0	1254	198.853193400609	0
0	1258	199.087913428016	1
0	1259	199.106245050345	0
0	1293	207.337833888886	1
0	1294	207.56097034625	0
0	1323	216.744227305672	1
0	1324	216.938367117866	0
0	1338	221.751523210805	1
0	1339	221.945650334723	0
0	1383	231.665702043026	1
0	1385	231.782179533242	2
0	1386	231.918703607639	1
0	1389	232.171755257375	0
0	1419	237.960243007109	1
0	1420	238.074810713292	0
0	1464	245.919479620001	1
0	1465	245.996628894755	0
0	1469	246.218491008444	1
0	1470	246.249680544491	0
0	1479	246.546587124707	1
0	1480	246.790599844124	0
0	1494	248.057650906481	1
0	1495	248.305344770091	0
0	1604	268.908745465231	1
0	1605	268.980992615179	0
0	1679	288.397235225901	1
0	1681	288.523776693357	2
0	1682	288.533476612691	1
0	1685	288.786528262427	0
0	1689	288.825024509634	1
0	1691	288.950159403039	2
0	1692	289.039579912163	1
0	1695	289.292631561899	0
0	1709	290.367269325205	1
0	1710	290.447856050761	0
0	1714	290.623625405792	1
0	1715	290.700907700497	0
0	1734	294.148066420996	1
0	1735	294.2075630523	0
0	1770	300.409963572304	1
0	1771	300.563444787164	0
0	1800	306.054055616488	1
0	1801	306.193072855063	0
0	1805	306.334684074378	1
0	1807	306.439716723534	2
0	1808	306.446124504799	1
0	1812	306.698775810257	2
0	1813	306.699176154535	1
0	1816	306.952227804271	0
0	1830	308.223953907183	1
0	1831	308.370997215431	0
0	1860	313.55293235054	1
0	1861	313.70423035952	0
0	1895	319.102221187954	1
0	1896	319.337433322076	0
0	1945	326.502713482583	1
0	1947	326.631222400554	2
0	1948	326.680398825985	1
0	1952	326.906805025754	2
0	1953	326.933450475721	1
0	1957	327.168983054623	2
0	1958	327.186502125457	1
0	1962	327.352033722698	2
0	1963	327.439553775193	1
0	1967	327.446348987982	2
0	1968	327.692605424929	1
0	1971	327.945657074665	0
0	1990	331.805697107388	1
0	1991	331.990718987301	0
0	2005	333.994649558104	1
0	2006	334.204052352866	0
0	2015	336.822112265527	1
0	2016	336.927533419429	0
0	2025	337.347909257893	1
0	2026	337.529379237921	0
0	2035	339.066610660918	1
0	2036	339.166415552484	0
0	2040	339.393049634698	1
0	2041	339.41946720222	0
0	2080	347.692884468788	1
0	2081	347.877872415717	0
0	2085	348.067662260505	1
0	2086	348.130924065453	0
0	2090	348.373339113717	1
0	2091	348.383975715189	0
0	2095	348.46641148183	1
0	2096	348.637027364925	0
0	2116	352.178577180719	1
0	2117	352.362726635172	0
0	2131	354.324442233677	1
0	2132	354.561481155939	0
0	2221	376.749557894096	1
0	2223	376.865891884299	2
0	2224	376.926760603398	1
0	2227	377.179812253134	0
0	2256	388.839947744001	1
0	2258	389.035772263773	2
0	2259	389.038969571769	1
0	2262	389.292021221505	0
0	2301	401.375527968978	1
0	2302	401.578240867939	0
0	2311	403.853069382648	1
0	2312	403.981988593027	0
0	2321	404.745450119413	1
0	2322	404.835471597028	0
0	2326	404.99251370696	1
0	2327	405.088523246764	0
0	2361	419.857241890668	1
0	2362	419.875801281316	0
0	2366	420.04839827911	1
0	2367	420.128852931052	0
0	2371	420.319763382078	1
0	2372	420.381904580788	0
0	2391	423.336010058576	1
0	2392	423.444825544175	0
0	2401	424.122494694211	1
0	2402	424.203129247174	0
0	2421	427.004432622197	1
0	2422	427.108134445005	0
0	2426	427.259647601078	1
0	2428	427.332246172467	2
0	2429	427.361186094741	1
0	2432	427.614237744477	0
0	2458	442.034601500346	1
0	2459	442.205428952266	0
0	2477	446.36158690802	1
0	2478	446.401084414697	0
0	2482	446.576693786522	1
0	2484	446.59635294382	2
0	2485	446.654136064433	1
0	2488	446.907187714169	0
0	2522	454.153068575368	1
0	2523	454.317548577678	0
0	2527	454.497239774282	1
0	2528	454.570600227414	0
0	2532	454.615218462049	1
0	2533	454.82365187715	0
0	2547	456.807570269103	1
0	2548	456.934903186407	0
0	2552	456.994302976776	1
0	2553	457.187954836143	0
0	2567	458.074145008911	1
0	2569	458.082261504209	2
0	2570	458.179805330536	1
0	2573	458.432856980272	0
0	2577	458.543572977099	1
0	2578	458.685908630008	0
0	2597	460.970656450179	1
0	2598	461.19838864531	0
0	2607	462.74396976316	1
0	2608	462.820116262386	0
0	2647	466.881560079174	1
0	2648	466.935069291866	0
0	2687	477.241229482573	1
0	2688	477.279432567654	0
0	2702	478.681661057873	1
0	2703	478.847716197764	0
0	2717	482.16543911756	1
0	2719	482.228817043595	2
0	2720	482.316113107877	1
0	2723	482.569164757613	0
0	2797	493.810656319841	1
0	2798	493.851712252621	0
0	2807	494.524344044445	1
0	2810	494.896392342527	0
0	2818	496.934984325345	1
0	2819	496.99198615715	0
0	2848	501.623745128577	1
0	2850	501.806114244511	2
0	2851	501.83871809313	1
0	2854	502.091769742866	0
0	2868	504.379194257776	1
0	2869	504.564658012972	0
0	2873	504.803150452624	1
0	2874	504.817709662708	0
0	2883	506.572066459605	1
0	2884	506.665090142594	0
0	2908	513.045664467289	1
0	2909	513.286744294082	0
0	2913	513.397312132099	1
0	2914	513.539795943818	0
0	2958	520.902400102718	1
0	2959	521.028907763458	0
0	3003	527.526976892393	1
0	3004	527.584447856148	0
0	3018	529.484734352599	1
0	3019	529.734969036902	0
0	3093	540.520181065177	1
0	3094	540.609992064289	0
0	3098	540.751548934562	1
0	3099	540.863043714025	0
0	3103	540.989360999853	1
0	3104	541.116095363761	0
0	3108	541.221831129835	1
0	3109	541.369147013497	0
0	3118	542.86006448724	1
0	3119	543.104752259246	0
0	3123	543.348783539488	1
0	3124	543.357803908982	0
0	3158	547.972440761567	1
0	3161	548.446657538559	0
0	3164	548.667667324245	1
0	3165	548.699709188295	0
0	3199	555.118399766746	1
0	3200	555.231314066757	0
0	3209	555.764262698647	1
0	3210	555.872894000216	0
0	3274	571.528872581482	1
0	3275	571.533912360153	0
0	3289	573.022728011226	1
0	3291	573.058977657385	2
0	3292	573.191598419062	1
0	3295	573.444650068798	0
0	3299	573.526084655451	1
0	3300	573.697701718534	0
0	3319	578.858667604598	1
0	3321	579.007758124703	2
0	3322	579.043189044956	1
0	3326	579.283883634407	2
0	3327	579.296240694692	1
0	3330	579.549292344428	0
0	3339	581.139770601029	1
0	3340	581.369963551402	0
0	3344	581.424142436066	1
0	3345	581.623015201138	0
0	3349	581.870645308257	1
0	3350	581.876066850874	0
0	3369	586.870401210634	1
0	3370	587.052288930983	0
0	3374	587.080098924577	1
0	3375	587.305340580719	0
0	3409	594.222521317355	1
0	3410	594.468046413105	0
0	3414	594.598651514204	1
0	3415	594.721098062841	0
0	3419	594.93672872471	1
0	3420	594.974149712577	0
0	3429	595.856426313762	1
0	3430	596.094256943457	0
0	3439	596.613539503358	1
0	3441	596.670323283415	2
0	3442	596.69240495722	1
0	3445	596.945456606956	0
0	3479	605.353830069236	1
0	3480	605.563059287465	0
0	3520	615.304451907643	1
0	3521	615.426275163454	0
0	3525	615.441190018467	1
0	3526	615.67932681319	0
0	3550	620.597893965585	1
0	3552	620.783046796471	2
0	3553	620.801103715194	1
0	3557	620.863665132284	2
0	3558	621.05415536493	1
0	3561	621.307207014666	0
0	3565	621.32727756789	1
0	3567	621.427993905266	2
0	3569	621.490471450494	3
0	3570	621.560258664402	2
0	3574	621.687883915622	3
0	3575	621.813310314138	2
0	3578	622.066361963874	1
0	3581	622.31941361361	0
0	3615	632.298646058804	1
0	3616	632.436119179469	0
0	3630	633.915837903015	1
0	3631	634.115262809866	0
0	3645	636.714278693655	1
0	3646	636.753257910645	0
0	3715	647.258568861056	1
0	3716	647.378852529723	0
0	3740	652.481685046982	1
0	3741	652.546970847429	0
0	3745	652.777122999134	1
0	3746	652.800022497165	0
0	3770	656.176874473008	1
0	3771	656.218391419265	0
0	3800	662.671810106201	1
0	3801	662.800053446755	0
0	3810	663.613703724903	1
0	3812	663.659045852684	2
0	3814	663.763695996233	3
0	3815	663.79760573671	2
0	3818	664.050657386446	1
0	3821	664.303709036182	0
0	3835	665.851132310033	1
0	3837	665.900704978796	2
0	3838	666.085645333239	1
0	3842	666.172193584867	2
0	3843	666.338696982975	1
0	3846	666.591748632711	0
0	3855	667.493661659682	1
0	3856	667.517677862151	0
0	3886	671.52439633224	1
0	3888	671.563936934769	2
0	3890	671.623189735327	3
0	3891	671.7370592732	2
0	3894	671.990110922936	1
0	3897	672.243162572672	0
0	3921	675.184557911878	1
0	3922	675.352529881293	0
0	3926	675.458414857839	1
0	3927	675.605581531029	0
0	3936	676.36173030179	1
0	3938	676.543135338105	2
0	3939	676.608558933109	1
0	3942	676.861610582845	0
0	3951	677.485107020019	1
0	3952	677.554452400809	0
0	4006	687.584880077907	1
0	4008	687.687434925334	2
0	4009	687.697322505479	1
0	4012	687.950374155215	0
0	4016	688.047208242791	1
0	4017	688.203425804951	0
0	4021	688.301631526539	1
0	4022	688.456477454687	0
0	4031	690.58901130103	1
0	4032	690.701083563366	0
0	4071	695.959050862274	1
0	4072	696.094262128992	0
0	4086	697.545681728549	1
0	4087	697.652605327827	0
0	4101	699.239194709682	1
0	4102	699.421491683629	0
0	4106	699.500431703497	1
0	4107	699.674543333365	0
0	4126	702.994928830942	1
0	4127	703.244871353424	0
0	4171	710.881270543928	1
0	4173	710.921302191537	2
0	4174	711.033164297571	1
0	4178	711.260511876466	2
0	4179	711.286215947307	1
0	4182	711.539267597043	0
0	4186	711.686222859057	1
0	4187	711.792319246779	0
0	4191	711.799504851537	1
0	4192	712.045370896515	0
0	4217	719.130321819657	1
0	4219	719.193880251499	2
0	4220	719.371445988413	1
0	4223	719.624497638149	0
0	4232	720.853297638451	1
0	4233	720.97353632714	0
0	4247	722.431880779511	1
0	4248	722.562009987067	0
0	4262	725.049848830325	1
0	4263	725.24493083841	0
0	4267	725.247608502158	1
0	4268	725.497982488146	0
0	4317	734.638586575836	1
0	4318	734.809285418987	0
0	4347	738.804455206082	1
0	4348	738.824814702497	0
0	4352	738.911742827621	1
0	4353	739.077866352233	0
0	4367	740.749747706001	1
0	4368	740.78052342339	0
0	4417	749.192219718306	1
0	4418	749.397495326371	0
0	4427	749.991923401553	1
0	4428	750.160617656549	0
0	4492	762.708315657119	1
0	4493	762.748499599402	0
0	4507	767.449291277322	1
0	4508	767.484851892134	0
0	4517	768.381783452066	1
0	4518	768.399015143606	0
0	4542	772.011040503666	1
0	4544	772.044860349993	2
0	4545	772.211541625263	1
0	4548	772.464593274999	0
0	4557	772.902771108154	1
0	4558	773.004683434372	0
0	4562	773.203348052569	1
0	4565	773.488384771784	0
0	4613	789.404341014071	1
0	4614	789.468288290641	0
0	4648	798.252124308794	1
0	4649	798.483809014793	0
0	4658	798.949836128819	1
0	4659	799.021736629505	0
0	4718	810.078157473507	1
0	4720	810.091328849712	2
0	4721	810.168516554002	1
0	4724	810.421568203738	0
0	4768	820.806542553283	1
0	4769	821.040796495271	0
0	4808	826.956717804285	1
0	4809	827.005404406398	0
0	4828	831.162127910934	1
0	4829	831.344434905682	0
0	4853	839.769819310384	1
0	4854	839.949683597127	0
0	4858	840.200877819702	1
0	4859	840.202735246863	0
0	4868	841.402731211998	1
0	4869	841.545995454556	0
0	4883	843.302314572094	1
0	4884	843.424230425949	0
0	4919	848.876786650002	1
0	4920	849.104774332212	0
0	4939	853.394676322627	1
0	4940	853.426683720093	0
0	4944	853.590343612408	1
0	4945	853.679735369829	0
0	4969	856.395332792608	1
0	4970	856.524646182168	0
0	4994	860.157461632951	1
0	4995	860.196193799519	0
0	5009	862.178903589269	1
0	5011	862.201827363774	2
0	5012	862.260244473034	1
0	5016	862.509019083213	2
0	5017	862.51329612277	1
0	5020	862.766347772506	0
0	5054	869.896021023968	1
0	5055	869.94073472755	0
0	5059	869.96779340536	1
0	5060	870.193786377286	0
0	5069	870.686342240895	1
0	5070	870.917192242684	0
0	5074	870.990561266312	1
0	5075	871.17024389242	0
0	5114	877.762615688835	1
0	5116	877.943877388137	2
0	5117	877.974146396914	1
0	5120	878.22719804665	0
0	5134	879.5825615177	1
0	5135	879.684949024201	0
0	5154	881.233150730008	1
0	5155	881.41745450574	0
0	5164	882.042197963834	1
0	5166	882.137348186507	2
0	5167	882.199736225122	1
0	5170	882.452787874858	0
0	5174	882.453523470255	1
0	5176	882.635478662857	2
0	5177	882.705839524594	1
0	5180	882.95889117433	0
0	5234	893.236597009194	1
0	5235	893.307891347426	0
0	5249	896.775270768949	1
0	5250	897.017179972025	0
0	5280	902.650540931475	1
0	5281	902.756321242222	0
0	5285	902.902568755355	1
0	5286	903.009372891958	0
0	5300	903.795446640133	1
0	5301	903.942746702229	0
0	5350	910.652213181514	1
0	5351	910.803396870697	0
0	5355	911.040977307464	1
0	5356	911.056448520433	0
0	5370	912.764089309649	1
0	5372	912.833944614523	2
0	5373	912.881262201628	1
0	5376	913.134313851364	0
0	5410	917.683137012145	1
0	5411	917.923661297191	0
0	5430	920.112561803709	1
0	5431	920.320594113662	0
0	5450	923.532666997247	1
0	5451	923.615481916656	0
0	5480	931.129269171891	1
0	5481	931.339051724193	0
0	5525	934.92164060886	1
0	5526	935.110435220319	0
0	5555	941.079728796147	1
0	5556	941.103614474473	0
0	5575	944.966796779773	1
0	5576	945.171358022949	0
0	5595	947.254179212818	1
0	5596	947.317158445672	0
0	5610	950.716050222823	1
0	5611	950.824582936017	0
0	5615	950.913208904071	1
0	5619	951.091271891806	2
0	5621	951.099720460711	3
0	5623	951.264297666608	4
0	5624	951.308284273429	3
0	5626	951.561335923165	2
0	5630	951.695679166194	3
0	5631	951.814387572901	2
0	5634	952.067439222637	1
0	5637	952.320490872373	0
0	5641	952.401016944368	1
0	5643	952.405519269417	2
0	5644	952.573542522109	1
0	5648	952.760668120099	2
0	5649	952.826594171845	1
0	5653	953.047843616416	2
0	5654	953.079645821581	1
0	5657	953.332697471317	0
0	5681	960.501233575152	1
0	5682	960.705315269711	0
0	5696	963.391580562421	1
0	5697	963.602240610294	0
0	5706	968.139241006282	1
0	5708	968.33155566024	2
0	5709	968.342074429649	1
0	5712	968.595126079385	0
0	5726	970.108600020646	1
0	5727	970.229372697516	0
0	5746	972.014085655026	1
0	5747	972.195842131722	0
0	5761	974.240333997963	1
0	5762	974.269910799768	0
0	5781	977.854537832091	1
0	5782	977.933363324224	0
0	5806	981.92164598865	1
0	5807	982.066396779048	0
1	5	1.348733212586	0.253051649736
1	10	2.389468822823	0.253051649736
1	15	2.672667053554	0.253051649736
1	20	4.014068536981	0.253051649736
1	25	5.030631863063	0.253051649736
1	32	6.371803754025	0.253051649736
1	35	6.624855403761	0.44993448996
1	40	7.155594471913	0.253051649736
1	45	7.831814880966	0.253051649736
1	50	10.393714824156	0.253051649736
1	55	11.8176533892	0.253051649736
1	60	12.386588087105	0.253051649736
1	65	12.65160303342	0.253051649736
1	70	13.363219969345	0.253051649736
1	77	14.289268782936	0.253051649736
1	80	14.542320432672	0.50595283713
1	87	16.071243215038	0.253051649736
1	90	16.324294864774	0.47441821996
1	95	17.293009169159	0.253051649736
1	100	18.862119140766	0.253051649736
1	105	21.509379860363	0.253051649736
1	110	22.077432643309	0.253051649736
1	115	23.009275820037	0.253051649736
1	120	23.270788097103	0.253051649736
1	125	24.123630828547	0.253051649736
1	130	24.461477430295	0.253051649736
1	135	26.973864744888	0.253051649736
1	140	27.308661205983	0.253051649736
1	145	28.500190884674	0.253051649736
1	152	28.807120560398	0.253051649736
1	155	29.060172210134	0.353032983197
1	160	30.227334242138	0.253051649736
1	171	30.969875657767	0.253051649736
1	174	31.222927307503	0.473521267795
1	179	31.475978957239	0.628947881815
1	182	31.729030606975	0.771162851132
1	185	31.982082256711	0.67641233362
1	190	32.663508749224	0.253051649736
1	195	33.734032383096	0.253051649736
1	204	34.506878431795	0.253051649736
1	207	34.759930081531	0.311037965803
1	210	35.012981731267	0.543353074981
1	217	35.415403061795	0.253051649736
1	220	35.668454711531	0.448257811908
1	225	35.934874973703	0.253051649736
1	230	36.602441362264	0.253051649736
1	237	37.371740539376	0.253051649736
1	242	37.624792189112	0.293624604529
1	245	37.877843838848	0.378822821112
1	250	38.63950621724	0.253051649736
1	255	39.74290299347	0.253051649736
1	260	40.618525292508	0.253051649736
1	265	41.053167609636	0.253051649736
1	270	41.492604828067	0.253051649736
1	277	42.474308989803	0.253051649736
1	280	42.727360639539	0.4462393087
1	285	44.510671627391	0.253051649736
1	290	44.778722855218	0.253051649736
1	295	46.465645303847	0.253051649736
1	302	47.021212196199	0.253051649736
1	305	47.274263845935	0.307266615524
1	310	49.268347249794	0.253051649736
1	315	50.34921207932	0.253051649736
1	320	50.954882602163	0.253051649736
1	325	51.22047478166	0.253051649736
1	330	51.761648801997	0.253051649736
1	335	52.426144639782	0.253051649736
1	340	52.745301476053	0.253051649736
1	345	53.613714047507	0.253051649736
1	352	53.925873842099	0.253051649736
1	356	54.409575179511	0.67090386065
1	361	54.790160783945	0.253051649736
1	366	55.964322389008	0.253051649736
1	371	56.333993876259	0.253051649736
1	376	57.473912067158	0.253051649736
1	383	58.626722547565	0.253051649736
1	388	58.879774197301	0.360046393513
1	391	59.132825847037	0.347020343564
1	398	60.803776670994	0.253051649736
1	401	61.05682832073	0.287495415469
1	406	62.759060307458	0.253051649736
1	411	64.20048422412	0.253051649736
1	416	64.601741829919	0.253051649736
1	421	65.980911187048	0.253051649736
1	428	66.342245985492	0.253051649736
1	435	66.595297635228	0.375588163324
1	438	66.848349284964	0.408163499399
1	443	67.1014009347	0.524295264821
1	446	67.354452584436	0.330296399104
1	451	69.306205718416	0.253051649736
1	456	70.213946478251	0.253051649736
1	465	71.19855786051	0.253051649736
1	468	71.451609510246	0.456142740426
1	471	71.704661159982	0.666458155349
1	476	72.830489640188	0.253051649736
1	481	76.709090186456	0.253051649736
1	486	77.388690124522	0.253051649736
1	491	78.915509886518	0.253051649736
1	496	79.949088192612	0.253051649736
1	501	83.237004712941	0.253051649736
1	506	83.832918083621	0.253051649736
1	513	84.105315959534	0.253051649736
1	518	84.35836760927	0.35044599792
1	521	84.611419259006	0.378607090786
1	526	84.980870465195	0.253051649736
1	535	87.817550614495	0.253051649736
1	542	88.070602264231	0.418861358535
1	545	88.323653913967	0.616329382963
1	548	88.576705563703	0.615161517401
1	555	88.829757213439	0.801240773909
1	558	89.082808863175	0.344977084555
1	561	89.335860512911	0.592711459545
1	566	90.907681010381	0.253051649736
1	571	93.027609998862	0.253051649736
1	578	95.378757239736	0.253051649736
1	581	95.631808889472	0.307031319123
1	588	95.93838718039	0.253051649736
1	593	96.191438830126	0.373566827318
1	596	96.444490479862	0.46127080773
1	603	97.730381511061	0.253051649736
1	608	97.983433160797	0.368448777627
1	611	98.236484810533	0.47618763673
1	620	98.85516028498	0.253051649736
1	623	99.108211934716	0.40123959852
1	626	99.361263584452	0.635074070449
1	631	101.376820842328	0.253051649736
1	642	101.682209037039	0.253051649736
1	645	101.935260686775	0.503523518988
1	648	102.188312336511	0.750792551904
1	651	102.441363986247	0.763282388687
1	658	105.039464520573	0.253051649736
1	661	105.292516170309	0.295641891115
1	666	106.688834322729	0.253051649736
1	671	109.159798083561	0.253051649736
1	676	109.633978735891	0.253051649736
1	681	110.070028875088	0.253051649736
1	686	111.721626666915	0.253051649736
1	691	112.608523879738	0.253051649736
1	696	113.239422050476	0.253051649736
1	703	113.989824148718	0.253051649736
1	707	114.47352548613	0.639346032522
1	714	115.730760548915	0.253051649736
1	719	115.983812198651	0.264083485487
1	722	116.236863848387	0.292424834579
1	727	118.189534710322	0.253051649736
1	732	118.47899140464	0.253051649736
1	737	118.798651902914	0.253051649736
1	742	120.169090124548	0.253051649736
1	751	122.166456799246	0.253051649736
1	756	122.419508448982	0.488490072494
1	761	122.672560098718	0.51177780489
1	766	122.925611748454	0.580104072534
1	775	123.17866339819	0.649342638549
1	778	123.431715047926	0.591200162458
1	781	123.684766697662	0.518172588367
1	786	123.937818347398	0.771140298235
1	789	124.190869997134	1.015934467361
1	792	124.44392164687	0.750015978292
1	799	124.82586841755	0.253051649736
1	802	125.078920067286	0.271539439731
1	807	125.525001582307	0.253051649736
1	812	126.515436447734	0.253051649736
1	817	127.288461848221	0.253051649736
1	822	128.063699881303	0.253051649736
1	827	128.780328260431	0.253051649736
1	836	130.497976534912	0.253051649736
1	839	130.751028184648	0.49197202563
1	842	131.004079834384	0.739585323815
1	847	131.458011595575	0.253051649736
1	852	132.856590147657	0.253051649736
1	857	134.356457715173	0.253051649736
1	862	134.758045207856	0.253051649736
1	867	135.38636993033	0.253051649736
1	872	135.806806953233	0.253051649736
1	879	136.369282272314	0.253051649736
1	882	136.62233392205	0.432884222473
1	887	137.916850429914	0.253051649736
1	896	138.796343972096	0.253051649736
1	899	139.049395621832	0.330241718106
1	902	139.302447271568	0.546838238407
1	907	140.072780946415	0.253051649736
1	912	144.474333157709	0.253051649736
1	917	146.444718458876	0.253051649736
1	922	148.270358395737	0.253051649736
1	933	149.575134227496	0.253051649736
1	938	149.828185877232	0.501079935642
1	941	150.081237526968	0.621109681134
1	944	150.334289176704	0.854805766801
1	947	150.58734082644	0.906501810844
1	952	151.144019787328	0.253051649736
1	957	151.925450472271	0.253051649736
1	962	152.794601790429	0.253051649736
1	967	154.481635874267	0.253051649736
1	972	157.464349945282	0.253051649736
1	979	158.089385229527	0.253051649736
1	982	158.342436879263	0.450209275011
1	991	158.758166942291	0.253051649736
1	994	159.011218592027	0.413208296214
1	999	159.264270241763	0.563740797842
1	1002	159.517321891499	0.400489825084
1	1007	160.941937896294	0.253051649736
1	1012	161.53344532593	0.253051649736
1	1017	161.951264245956	0.253051649736
1	1022	162.274587488868	0.253051649736
1	1027	163.263884627091	0.253051649736
1	1032	164.530245839304	0.253051649736
1	1039	165.512417167624	0.253051649736
1	1042	165.76546881736	0.327853373489
1	1047	166.034599430251	0.253051649736
1	1052	167.392022353312	0.253051649736
1	1058	167.875723690724	0.295621908101
1	1065	170.427425103747	0.253051649736
1	1070	170.680476753483	0.312724445543
1	1073	170.933528403219	0.49749919757
1	1078	171.590213758192	0.253051649736
1	1085	172.072634271208	0.253051649736
1	1088	172.325685920944	0.442338761472
1	1093	173.590794755215	0.253051649736
1	1098	174.724017603239	0.253051649736
1	1103	176.177856181434	0.253051649736
1	1108	177.073875825901	0.253051649736
1	1113	177.354773155817	0.253051649736
1	1118	178.330636357216	0.253051649736
1	1125	178.626227189823	0.253051649736
1	1128	178.879278839559	0.397933835932
1	1135	179.533225426345	0.253051649736
1	1140	179.786277076081	0.389319846494
1	1143	180.039328725817	0.499012616713
1	1150	181.390429273091	0.253051649736
1	1153	181.643480922827	0.3497830409
1	1158	182.019780950261	0.253051649736
1	1165	183.512820436805	0.253051649736
1	1168	183.765872086541	0.392434064366
1	1173	184.609674889613	0.253051649736
1	1180	185.032293344695	0.253051649736
1	1183	185.285344994431	0.273075219901
1	1188	187.376275686908	0.253051649736
1	1193	187.769150184365	0.253051649736
1	1198	189.718328730989	0.253051649736
1	1203	191.140572033868	0.253051649736
1	1210	191.463668066525	0.253051649736
1	1213	191.716719716261	0.324076273393
1	1218	192.292340608819	0.253051649736
1	1223	193.145683581315	0.253051649736
1	1228	193.603523924073	0.253051649736
1	1233	195.86901944214	0.253051649736
1	1238	196.166449439371	0.253051649736
1	1243	196.882729651091	0.253051649736
1	1248	197.95691691103	0.253051649736
1	1255	198.853193400609	0.253051649736
1	1260	199.106245050345	0.465596945223
1	1263	199.359296700081	0.271383272065
1	1268	201.297571653526	0.253051649736
1	1273	201.821504319407	0.253051649736
1	1278	202.714618820582	0.253051649736
1	1283	204.702330323935	0.253051649736
1	1288	206.290398870061	0.253051649736
1	1295	207.56097034625	0.253051649736
1	1298	207.814021995986	0.4761881071
1	1303	208.086806726273	0.253051649736
1	1308	210.296963955616	0.253051649736
1	1313	211.52902126975	0.253051649736
1	1318	214.646968516497	0.253051649736
1	1325	216.938367117866	0.253051649736
1	1328	217.191418767602	0.44719146193
1	1333	218.755093754146	0.253051649736
1	1340	221.945650334723	0.253051649736
1	1343	222.198701984459	0.447178773654
1	1348	222.778269923257	0.253051649736
1	1353	223.540542166507	0.253051649736
1	1358	225.802890907318	0.253051649736
1	1363	227.574383271226	0.253051649736
1	1368	228.201447672035	0.253051649736
1	1373	228.642766960341	0.253051649736
1	1378	229.432557831373	0.253051649736
1	1387	231.918703607639	0.253051649736
1	1390	232.171755257375	0.506053214349
1	1393	232.424806907111	0.642627373869
1	1398	233.075282417523	0.253051649736
1	1403	234.301533128397	0.253051649736
1	1409	234.963043595454	0.253051649736
1	1414	236.162524161568	0.253051649736
1	1421	238.074810713292	0.253051649736
1	1424	238.327862363028	0.367619355919
1	1429	239.937774193687	0.253051649736
1	1434	240.352489822419	0.253051649736
1	1439	240.947753302441	0.253051649736
1	1444	242.144192556429	0.253051649736
1	1449	243.395835301383	0.253051649736
1	1454	243.679839491627	0.253051649736
1	1459	245.41071135236	0.253051649736
1	1466	245.996628894755	0.253051649736
1	1471	246.249680544491	0.33020092449
1	1474	246.502732194227	0.284241185783
1	1481	246.790599844124	0.253051649736
1	1484	247.04365149386	0.497064369153
1	1489	247.531343974643	0.253051649736
1	1496	248.305344770091	0.253051649736
1	1499	248.558396419827	0.500745513346
1	1504	250.505803116734	0.253051649736
1	1509	250.774792074616	0.253051649736
1	1514	252.654416697056	0.253051649736
1	1519	255.77076787476	0.253051649736
1	1524	256.35515698927	0.253051649736
1	1529	256.715268327598	0.253051649736
1	1534	256.993773243314	0.253051649736
1	1539	257.545895129637	0.253051649736
1	1544	258.586151734571	0.253051649736
1	1549	259.29344360152	0.253051649736
1	1554	260.204489011007	0.253051649736
1	1559	262.015477204597	0.253051649736
1	1564	263.109531628596	0.253051649736
1	1569	263.598471865371	0.253051649736
1	1574	264.257879575755	0.253051649736
1	1579	264.930852142291	0.253051649736
1	1584	266.277397234005	0.253051649736
1	1589	267.837214246538	0.253051649736
1	1594	268.109998616268	0.253051649736
1	1599	268.510990770896	0.253051649736
1	1606	268.980992615179	0.253051649736
1	1609	269.234044264915	0.325298799684
1	1614	272.345533480789	0.253051649736
1	1619	273.609082370279	0.253051649736
1	1624	274.492774619842	0.253051649736
1	1629	274.782177513416	0.253051649736
1	1634	275.493212105142	0.253051649736
1	1639	278.30563971656	0.253051649736
1	1644	279.34090587932	0.253051649736
1	1649	279.655521441515	0.253051649736
1	1654	281.324239198611	0.253051649736
1	1659	284.586151140579	0.253051649736
1	1664	284.851980698593	0.253051649736
1	1669	285.624008558919	0.253051649736
1	1674	286.373318530924	0.253051649736
1	1683	288.533476612691	0.253051649736
1	1686	288.786528262427	0.389293036526
1	1693	289.039579912163	0.515803218806
1	1696	289.292631561899	0.467607052265
1	1699	289.545683211635	0.595523808596
1	1704	289.868440584867	0.253051649736
1	1711	290.447856050761	0.253051649736
1	1716	290.700907700497	0.333638375292
1	1719	290.953959350233	0.330333944441
1	1724	292.191736601632	0.253051649736
1	1729	293.616279737961	0.253051649736
1	1736	294.2075630523	0.253051649736
1	1739	294.460614702036	0.31254828104
1	1744	294.846035173666	0.253051649736
1	1749	295.814659603042	0.253051649736
1	1754	297.637208975952	0.253051649736
1	1760	298.529983137767	0.253051649736
1	1765	300.279389632929	0.253051649736
1	1772	300.563444787164	0.253051649736
1	1775	300.8164964369	0.406532864596
1	1780	301.966366921878	0.253051649736
1	1785	303.6138906151	0.253051649736
1	1790	305.429607008871	0.253051649736
1	1795	305.903089487624	0.253051649736
1	1802	306.193072855063	0.253051649736
1	1809	306.446124504799	0.392068888311
1	1814	306.699176154535	0.364492080157
1	1817	306.952227804271	0.512511080737
1	1820	307.205279454007	0.50650364375
1	1825	307.472655006343	0.253051649736
1	1832	308.370997215431	0.253051649736
1	1835	308.624048865167	0.400094957984
1	1840	309.139732278157	0.253051649736
1	1845	309.497348794096	0.253051649736
1	1850	311.767900172209	0.253051649736
1	1855	312.510992247574	0.253051649736
1	1862	313.70423035952	0.253051649736
1	1865	313.957282009256	0.404349658716
1	1870	315.097012697059	0.253051649736
1	1875	316.306854002818	0.253051649736
1	1880	316.631316320094	0.253051649736
1	1885	317.807004912792	0.253051649736
1	1890	318.712387104719	0.253051649736
1	1897	319.337433322076	0.253051649736
1	1900	319.590484971812	0.488263783858
1	1905	319.898646426117	0.253051649736
1	1910	320.961941390566	0.253051649736
1	1915	321.711644999736	0.253051649736
1	1920	322.005201905061	0.253051649736
1	1925	322.753013976931	0.253051649736
1	1930	324.120050965396	0.253051649736
1	1935	324.453884064737	0.253051649736
1	1940	324.867167510808	0.253051649736
1	1949	326.680398825985	0.253051649736
1	1954	326.933450475721	0.430736993138
1	1959	327.186502125457	0.555279724903
1	1964	327.439553775193	0.532748749439
1	1969	327.692605424929	0.523622370306
1	1972	327.945657074665	0.593623351967
1	1975	328.198708724401	0.752359736419
1	1980	331.074883127881	0.253051649736
1	1985	331.71687830928	0.253051649736
1	1992	331.990718987301	0.253051649736
1	1995	332.243770637037	0.438073529649
1	2000	332.908648932253	0.253051649736
1	2007	334.204052352866	0.253051649736
1	2010	334.457104002602	0.462454444498
1	2017	336.927533419429	0.253051649736
1	2020	337.180585069165	0.358472803638
1	2027	337.529379237921	0.253051649736
1	2030	337.782430887657	0.434521629764
1	2037	339.166415552484	0.253051649736
1	2042	339.41946720222	0.352856541302
1	2045	339.672518851956	0.279469217258
1	2050	341.005677207059	0.253051649736
1	2055	342.033665977492	0.253051649736
1	2060	344.726308871809	0.253051649736
1	2065	346.860796117416	0.253051649736
1	2070	347.18093622877	0.253051649736
1	2075	347.548364999816	0.253051649736
1	2082	347.877872415717	0.253051649736
1	2087	348.130924065453	0.438039596665
1	2092	348.383975715189	0.316313454684
1	2097	348.637027364925	0.263688251208
1	2100	348.890079014661	0.423667532831
1	2105	349.737039522702	0.253051649736
1	2111	350.825283036337	0.253051649736
1	2118	352.362726635172	0.253051649736
1	2121	352.615778284908	0.437201104189
1	2126	353.053242141737	0.253051649736
1	2133	354.561481155939	0.253051649736
1	2136	354.814532805675	0.490090571998
1	2141	357.806189747556	0.253051649736
1	2146	358.32230922868	0.253051649736
1	2151	358.635163613305	0.253051649736
1	2156	359.197477943455	0.253051649736
1	2161	359.619302981209	0.253051649736
1	2166	360.444645798696	0.253051649736
1	2171	361.671867732642	0.253051649736
1	2176	362.055385653634	0.253051649736
1	2181	364.056741308955	0.253051649736
1	2186	365.587591486237	0.253051649736
1	2191	366.886788289952	0.253051649736
1	2196	368.718242468305	0.253051649736
1	2201	369.312353593207	0.253051649736
1	2206	371.979792665284	0.253051649736
1	2211	375.229298837712	0.253051649736
1	2216	376.483636271282	0.253051649736
1	2225	376.926760603398	0.253051649736
1	2228	377.179812253134	0.430254359038
1	2231	377.43286390287	0.566972018571
1	2236	377.858141055318	0.253051649736
1	2241	381.193115263383	0.253051649736
1	2246	384.563800787346	0.253051649736
1	2251	386.880168478703	0.253051649736
1	2260	389.038969571769	0.253051649736
1	2263	389.292021221505	0.452073477504
1	2266	389.545072871241	0.509300607468
1	2271	390.286858190755	0.253051649736
1	2276	391.71857493507	0.253051649736
1	2281	392.412403335452	0.253051649736
1	2286	392.882118188596	0.253051649736
1	2291	394.846061412147	0.253051649736
1	2296	399.126998441772	0.253051649736
1	2303	401.578240867939	0.253051649736
1	2306	401.831292517675	0.455764548697
1	2313	403.981988593027	0.253051649736
1	2316	404.235040242763	0.381970860115
1	2323	404.835471597028	0.253051649736
1	2328	405.088523246764	0.343073127351
1	2331	405.3415748965	0.34906118954
1	2336	405.955218588632	0.253051649736
1	2341	409.060573567105	0.253051649736
1	2346	411.603897220256	0.253051649736
1	2351	414.470535815529	0.253051649736
1	2356	417.490743584866	0.253051649736
1	2363	419.875801281316	0.253051649736
1	2368	420.128852931052	0.271611040384
1	2373	420.381904580788	0.333506301678
1	2376	420.634956230524	0.315192848446
1	2381	421.418188879872	0.253051649736
1	2386	422.544801299159	0.253051649736
1	2393	423.444825544175	0.253051649736
1	2396	423.697877193911	0.361867135335
1	2403	424.203129247174	0.253051649736
1	2406	424.45618089691	0.333686202699
1	2411	424.841683310328	0.253051649736
1	2416	425.662300628547	0.253051649736
1	2423	427.108134445005	0.253051649736
1	2430	427.361186094741	0.356753472544
1	2433	427.614237744477	0.354590143399
1	2436	427.867289394213	0.535043221746
1	2441	428.796652528819	0.253051649736
1	2446	429.690885705097	0.253051649736
1	2451	433.302274330677	0.253051649736
1	2456	441.97477926459	0.253051649736
1	2462	442.458480602002	0.423879101656
1	2467	443.816104213519	0.253051649736
1	2472	444.197136552258	0.253051649736
1	2479	446.401084414697	0.253051649736
1	2486	446.654136064433	0.292549156413
1	2489	446.907187714169	0.330493927647
1	2492	447.160239363905	0.563886420085
1	2497	448.797435997228	0.253051649736
1	2502	449.118048149353	0.253051649736
1	2507	450.229352737555	0.253051649736
1	2512	452.073015423835	0.253051649736
1	2517	453.320041817958	0.253051649736
1	2524	454.317548577678	0.253051649736
1	2529	454.570600227414	0.417531652046
1	2534	454.82365187715	0.326412102868
1	2537	455.076703526886	0.461485064837
1	2542	456.029135441671	0.253051649736
1	2549	456.934903186407	0.253051649736
1	2554	457.187954836143	0.38038456704
1	2557	457.441006485879	0.446703509103
1	2562	457.921342199005	0.253051649736
1	2571	458.179805330536	0.253051649736
1	2574	458.432856980272	0.358711971361
1	2579	458.685908630008	0.603647125799
1	2582	458.938960279744	0.395387302645
1	2587	459.340542662243	0.253051649736
1	2592	460.172596459978	0.253051649736
1	2599	461.19838864531	0.253051649736
1	2602	461.451440295046	0.480783844867
1	2609	462.820116262386	0.253051649736
1	2612	463.073167912122	0.329198148962
1	2617	463.431413088998	0.253051649736
1	2622	464.219968789982	0.253051649736
1	2627	464.493460521292	0.253051649736
1	2632	464.79744160157	0.253051649736
1	2637	465.336963055336	0.253051649736
1	2642	465.749327249821	0.253051649736
1	2649	466.935069291866	0.253051649736
1	2652	467.188120941602	0.306560862428
1	2657	467.625746687798	0.253051649736
1	2662	468.60919651014	0.253051649736
1	2667	470.362557154833	0.253051649736
1	2672	473.805698896208	0.253051649736
1	2677	475.638827546868	0.253051649736
1	2682	476.868518730183	0.253051649736
1	2689	477.279432567654	0.253051649736
1	2692	477.53248421739	0.291254734817
1	2697	478.35205828879	0.253051649736
1	2704	478.847716197764	0.253051649736
1	2707	479.1007678475	0.419106789627
1	2712	479.888760635908	0.253051649736
1	2721	482.316113107877	0.253051649736
1	2724	482.569164757613	0.403725640053
1	2727	482.822216407349	0.593399363754
1	2732	483.584022092105	0.253051649736
1	2737	484.184840171585	0.253051649736
1	2742	484.922199675511	0.253051649736
1	2747	485.663042627507	0.253051649736
1	2752	487.287513231106	0.253051649736
1	2757	488.65597407779	0.253051649736
1	2762	489.112666175844	0.253051649736
1	2767	489.38539547265	0.253051649736
1	2772	490.969012485541	0.253051649736
1	2777	491.26912534097	0.253051649736
1	2782	491.773254888762	0.253051649736
1	2787	492.452014706769	0.253051649736
1	2792	493.372559579269	0.253051649736
1	2799	493.851712252621	0.253051649736
1	2802	494.104763902357	0.294107582516
1	2809	494.665742654851	0.253051649736
1	2813	495.149443992263	0.625099947818
1	2820	496.99198615715	0.253051649736
1	2823	497.245037806886	0.310053481541
1	2828	497.632477279885	0.253051649736
1	2833	498.127424487025	0.253051649736
1	2838	500.624672904774	0.253051649736
1	2843	501.165300097286	0.253051649736
1	2852	501.83871809313	0.253051649736
1	2855	502.091769742866	0.468024614289
1	2858	502.344821392602	0.538707148091
1	2863	502.687748725494	0.253051649736
1	2870	504.564658012972	0.253051649736
1	2875	504.817709662708	0.438515404932
1	2878	505.070761312444	0.26761085982
1	2885	506.665090142594	0.253051649736
1	2888	506.91814179233	0.346075332725
1	2893	508.086025190891	0.253051649736
1	2898	509.182218921521	0.253051649736
1	2903	509.765568507558	0.253051649736
1	2910	513.286744294082	0.253051649736
1	2915	513.539795943818	0.494131476529
1	2918	513.792847593554	0.395535461455
1	2923	514.503999947373	0.253051649736
1	2928	514.988943328941	0.253051649736
1	2933	515.560434091665	0.253051649736
1	2938	516.339903669841	0.253051649736
1	2943	517.648579189549	0.253051649736
1	2948	518.586525272537	0.253051649736
1	2953	520.466036655623	0.253051649736
1	2960	521.028907763458	0.253051649736
1	2963	521.281959413194	0.379559310476
1	2968	521.761694987278	0.253051649736
1	2973	522.573675762658	0.253051649736
1	2978	523.401804029888	0.253051649736
1	2983	523.732435781547	0.253051649736
1	2988	524.397159744837	0.253051649736
1	2993	524.666173276725	0.253051649736
1	2998	524.964193622537	0.253051649736
1	3005	527.584447856148	0.253051649736
1	3008	527.837499505884	0.310522613491
1	3013	529.442599516356	0.253051649736
1	3020	529.734969036902	0.253051649736
1	3023	529.988020686638	0.503286334039
1	3028	531.509331082559	0.253051649736
1	3033	531.787522271859	0.253051649736
1	3038	532.286575486764	0.253051649736
1	3043	532.71876042641	0.253051649736
1	3048	533.800981816757	0.253051649736
1	3053	534.458369664495	0.253051649736
1	3058	535.674272326006	0.253051649736
1	3063	536.494570533734	0.253051649736
1	3068	537.38052766256	0.253051649736
1	3073	537.658506582307	0.253051649736
1	3078	538.525939648988	0.253051649736
1	3083	539.120720458591	0.253051649736
1	3088	539.420902184095	0.253051649736
1	3095	540.609992064289	0.253051649736
1	3100	540.863043714025	0.342862648848
1	3105	541.116095363761	0.364546429199
1	3110	541.369147013497	0.379786013644
1	3113	541.622198663233	0.400367533398
1	3120	543.104752259246	0.253051649736
1	3125	543.357803908982	0.497739421742
1	3128	543.610855558718	0.26207201923
1	3133	544.881882786166	0.253051649736
1	3138	545.274583868879	0.253051649736
1	3143	545.588398028004	0.253051649736
1	3148	546.456693088918	0.253051649736
1	3153	546.880152931295	0.253051649736
1	3160	548.216007850883	0.253051649736
1	3166	548.699709188295	0.727268426728
1	3169	548.952760838031	0.285093513786
1	3174	550.219315969128	0.253051649736
1	3179	552.564204214678	0.253051649736
1	3184	553.19960301912	0.253051649736
1	3189	553.858393459968	0.253051649736
1	3194	554.49746046969	0.253051649736
1	3201	555.231314066757	0.253051649736
1	3204	555.484365716493	0.365965949747
1	3211	555.872894000216	0.253051649736
1	3214	556.125945649952	0.361682951305
1	3219	556.427645271069	0.253051649736
1	3224	556.921591802711	0.253051649736
1	3229	557.968867584715	0.253051649736
1	3234	559.404827701182	0.253051649736
1	3239	563.222826743288	0.253051649736
1	3244	564.384258987414	0.253051649736
1	3249	564.73691808756	0.253051649736
1	3254	565.43618703413	0.253051649736
1	3259	569.745794947871	0.253051649736
1	3264	570.456318593162	0.253051649736
1	3269	571.21649429757	0.253051649736
1	3276	571.533912360153	0.253051649736
1	3279	571.786964009889	0.258091428407
1	3284	572.707589005198	0.253051649736
1	3293	573.191598419062	0.253051649736
1	3296	573.444650068798	0.421922057572
1	3301	573.697701718534	0.638724061149
1	3304	573.95075336827	0.424668712819
1	3309	577.767723980196	0.253051649736
1	3314	578.442468443637	0.253051649736
1	3323	579.043189044956	0.253051649736
1	3328	579.296240694692	0.437573090094
1	3331	579.549292344428	0.541534219725
1	3334	579.802343994164	0.518460359757
1	3341	581.369963551402	0.253051649736
1	3346	581.623015201138	0.483244600109
1	3351	581.876066850874	0.451924414808
1	3354	582.12911850061	0.258473192353
1	3359	584.10951066575	0.253051649736
1	3364	586.16993471525	0.253051649736
1	3371	587.052288930983	0.253051649736
1	3376	587.305340580719	0.434939370085
1	3379	587.558392230455	0.478293305878
1	3384	589.310332791662	0.253051649736
1	3389	590.482691281804	0.253051649736
1	3394	590.963453899737	0.253051649736
1	3399	592.640606328331	0.253051649736
1	3404	593.437320478472	0.253051649736
1	3411	594.468046413105	0.253051649736
1	3416	594.721098062841	0.498576745486
1	3421	594.974149712577	0.375498198373
1	3424	595.227201362313	0.290472637603
1	3431	596.094256943457	0.253051649736
1	3434	596.347308593193	0.490882279431
1	3443	596.69240495722	0.253051649736
1	3446	596.945456606956	0.331917103598
1	3449	597.198508256692	0.528184973277
1	3454	601.305083749385	0.253051649736
1	3459	601.648963093708	0.253051649736
1	3464	604.081695813856	0.253051649736
1	3469	604.353022635312	0.253051649736
1	3474	604.732564617185	0.253051649736
1	3481	605.563059287465	0.253051649736
1	3484	605.816110937201	0.462280867965
1	3489	610.326993685335	0.253051649736
1	3494	611.366583057275	0.253051649736
1	3499	612.949512157703	0.253051649736
1	3504	613.342994253716	0.253051649736
1	3509	614.048278861736	0.253051649736
1	3515	614.760339672825	0.253051649736
1	3522	615.426275163454	0.253051649736
1	3527	615.67932681319	0.374874905547
1	3530	615.932378462926	0.491188444459
1	3535	616.207365726125	0.253051649736
1	3540	616.771249356612	0.253051649736
1	3545	620.043389344844	0.253051649736
1	3554	620.801103715194	0.253051649736
1	3559	621.05415536493	0.456261399345
1	3562	621.307207014666	0.524160218195
1	3571	621.560258664402	0.696593532118
1	3576	621.813310314138	0.486032746248
1	3579	622.066361963874	0.638368058608
1	3582	622.31941361361	0.828942163116
1	3585	622.572465263346	0.884581347724
1	3590	623.094246653289	0.253051649736
1	3595	625.406900829072	0.253051649736
1	3600	626.292916260853	0.253051649736
1	3605	627.122814788829	0.253051649736
1	3610	631.834888534263	0.253051649736
1	3617	632.436119179469	0.253051649736
1	3620	632.689170829205	0.390524770401
1	3625	632.965309107385	0.253051649736
1	3632	634.115262809866	0.253051649736
1	3635	634.368314459602	0.452476556587
1	3640	635.1589228105	0.253051649736
1	3647	636.753257910645	0.253051649736
1	3650	637.006309560381	0.292030866726
1	3655	637.887918019366	0.253051649736
1	3660	638.921995158693	0.253051649736
1	3665	639.689082741138	0.253051649736
1	3670	640.117921711718	0.253051649736
1	3675	640.726629269304	0.253051649736
1	3680	641.09326693521	0.253051649736
1	3685	642.367870292182	0.253051649736
1	3690	642.754848917583	0.253051649736
1	3695	643.174522031294	0.253051649736
1	3700	644.072912860548	0.253051649736
1	3705	645.034780931641	0.253051649736
1	3710	645.709555374463	0.253051649736
1	3717	647.378852529723	0.253051649736
1	3720	647.631904179459	0.373335318403
1	3725	650.788696826565	0.253051649736
1	3730	651.530730544361	0.253051649736
1	3735	652.251086976459	0.253051649736
1	3742	652.546970847429	0.253051649736
1	3747	652.800022497165	0.318337450183
1	3750	653.053074146901	0.275951147767
1	3755	653.548695444884	0.253051649736
1	3760	653.885075102436	0.253051649736
1	3765	654.721584587357	0.253051649736
1	3772	656.218391419265	0.253051649736
1	3775	656.471443069001	0.294568595993
1	3780	657.435925727796	0.253051649736
1	3785	659.95131724268	0.253051649736
1	3790	660.948771176657	0.253051649736
1	3795	662.43670566653	0.253051649736
1	3802	662.800053446755	0.253051649736
1	3805	663.053105096491	0.38129499029
1	3816	663.79760573671	0.253051649736
1	3819	664.050657386446	0.436953661543
1	3822	664.303709036182	0.644663183498
1	3825	664.556760685918	0.793064689685
1	3830	665.332310260831	0.253051649736
1	3839	666.085645333239	0.253051649736
1	3844	666.338696982975	0.487564672942
1	3847	666.591748632711	0.691043653915
1	3850	666.844800282447	0.67260669758
1	3857	667.517677862151	0.253051649736
1	3860	667.770729511887	0.277067852205
1	3866	669.309517706728	0.253051649736
1	3871	670.086563882009	0.253051649736
1	3876	670.683241680307	0.253051649736
1	3881	671.253259859807	0.253051649736
1	3892	671.7370592732	0.253051649736
1	3895	671.990110922936	0.465714590696
1	3898	672.243162572672	0.679225637903
1	3901	672.496214222408	0.873024487081
1	3906	673.017017069018	0.253051649736
1	3911	673.549160494863	0.253051649736
1	3916	673.983887379672	0.253051649736
1	3923	675.352529881293	0.253051649736
1	3928	675.605581531029	0.421023619151
1	3931	675.858633180765	0.400218322926
1	3940	676.608558933109	0.253051649736
1	3943	676.861610582845	0.499880281055
1	3946	677.114662232581	0.571526894476
1	3953	677.554452400809	0.253051649736
1	3956	677.807504050545	0.322397030526
1	3961	678.422492714613	0.253051649736
1	3966	678.700585030913	0.253051649736
1	3971	680.386400928607	0.253051649736
1	3976	680.779786766608	0.253051649736
1	3981	681.176422737855	0.253051649736
1	3986	681.734658225802	0.253051649736
1	3991	683.394539523215	0.253051649736
1	3996	683.859837259673	0.253051649736
1	4001	685.177872485984	0.253051649736
1	4010	687.697322505479	0.253051649736
1	4013	687.950374155215	0.365494077308
1	4018	688.203425804951	0.515990879617
1	4023	688.456477454687	0.409269211896
1	4026	688.709529104423	0.407897577884
1	4033	690.701083563366	0.253051649736
1	4036	690.954135213102	0.365123912072
1	4041	692.11898900921	0.253051649736
1	4046	693.13355888422	0.253051649736
1	4051	693.981312956521	0.253051649736
1	4056	694.436617098154	0.253051649736
1	4061	694.699886083241	0.253051649736
1	4066	695.711908968967	0.253051649736
1	4073	696.094262128992	0.253051649736
1	4076	696.347313778728	0.388262916454
1	4081	697.156557983024	0.253051649736
1	4088	697.652605327827	0.253051649736
1	4091	697.905656977563	0.359975249014
1	4096	698.357260336908	0.253051649736
1	4103	699.421491683629	0.253051649736
1	4108	699.674543333365	0.435348623683
1	4111	699.927594983101	0.427163279604
1	4116	701.511769836852	0.253051649736
1	4121	702.845318404708	0.253051649736
1	4128	703.244871353424	0.253051649736
1	4131	703.49792300316	0.502994172218
1	4136	703.951387196671	0.253051649736
1	4141	704.598525830038	0.253051649736
1	4146	705.420019130874	0.253051649736
1	4151	705.861809460207	0.253051649736
1	4156	706.400148436457	0.253051649736
1	4161	707.425519055313	0.253051649736
1	4166	708.442022786737	0.253051649736
1	4175	711.033164297571	0.253051649736
1	4180	711.286215947307	0.404945403379
1	4183	711.539267597043	0.617965405506
1	4188	711.792319246779	0.531807370313
1	4193	712.045370896515	0.359148037458
1	4196	712.298422546251	0.498917694714
1	4201	714.182146882685	0.253051649736
1	4206	714.504702521463	0.253051649736
1	4211	717.782966395336	0.253051649736
1	4221	719.371445988413	0.253051649736
1	4224	719.624497638149	0.494175818492
1	4227	719.877549287885	0.683669036386
1	4234	720.97353632714	0.253051649736
1	4237	721.226587976876	0.373290338425
1	4242	721.614055505598	0.253051649736
1	4249	722.562009987067	0.253051649736
1	4252	722.815061636803	0.383180857292
1	4257	723.369524290475	0.253051649736
1	4264	725.24493083841	0.253051649736
1	4269	725.497982488146	0.448133657821
1	4272	725.751034137882	0.503425635724
1	4277	727.653205659389	0.253051649736
1	4282	728.285480496642	0.253051649736
1	4287	731.410517617709	0.253051649736
1	4292	731.747540284873	0.253051649736
1	4297	732.978093895673	0.253051649736
1	4302	733.235987734411	0.253051649736
1	4307	734.184040574024	0.253051649736
1	4312	734.458435854686	0.253051649736
1	4319	734.809285418987	0.253051649736
1	4322	735.062337068723	0.423750492887
1	4327	735.47175839676	0.253051649736
1	4332	736.004345930889	0.253051649736
1	4337	738.117085067395	0.253051649736
1	4342	738.503796046277	0.253051649736
1	4349	738.824814702497	0.253051649736
1	4354	739.077866352233	0.273411146151
1	4357	739.330918001969	0.419175174348
1	4362	739.970538139201	0.253051649736
1	4369	740.78052342339	0.253051649736
1	4372	741.033575073126	0.283827367125
1	4377	741.426964143871	0.253051649736
1	4382	742.463201878816	0.253051649736
1	4387	743.749886054509	0.253051649736
1	4392	744.237840797061	0.253051649736
1	4397	745.693652554923	0.253051649736
1	4402	746.128858309373	0.253051649736
1	4407	747.21244988043	0.253051649736
1	4412	749.012321198979	0.253051649736
1	4419	749.397495326371	0.253051649736
1	4422	749.650546976107	0.458327257801
1	4429	750.160617656549	0.253051649736
1	4432	750.413669306285	0.421745904732
1	4437	751.110396763815	0.253051649736
1	4442	752.117058635763	0.253051649736
1	4447	752.824490008937	0.253051649736
1	4452	753.38057803705	0.253051649736
1	4457	754.199944513703	0.253051649736
1	4462	754.729127464663	0.253051649736
1	4467	755.866834391926	0.253051649736
1	4472	756.218555784784	0.253051649736
1	4477	756.932551228114	0.253051649736
1	4482	758.437173352892	0.253051649736
1	4487	761.562586271919	0.253051649736
1	4494	762.748499599402	0.253051649736
1	4497	763.001551249138	0.293235592019
1	4502	765.004796409842	0.253051649736
1	4509	767.484851892134	0.253051649736
1	4512	767.73790354187	0.288612264548
1	4519	768.399015143606	0.253051649736
1	4522	768.652066793342	0.270283341276
1	4527	769.208808575043	0.253051649736
1	4532	770.32970319516	0.253051649736
1	4537	771.28197935523	0.253051649736
1	4546	772.211541625263	0.253051649736
1	4549	772.464593274999	0.453552771333
1	4552	772.717644924735	0.672784574742
1	4559	773.004683434372	0.253051649736
1	4564	773.257735084108	0.354963975954
1	4568	773.74143642152	0.538088368951
1	4573	775.533448530218	0.253051649736
1	4578	779.929422398556	0.253051649736
1	4583	784.287303224643	0.253051649736
1	4588	784.665764895378	0.253051649736
1	4593	785.743174643967	0.253051649736
1	4598	786.450671536095	0.253051649736
1	4603	787.764832392598	0.253051649736
1	4608	788.282491498279	0.253051649736
1	4615	789.468288290641	0.253051649736
1	4618	789.721339940377	0.316998926306
1	4623	790.629807439292	0.253051649736
1	4628	793.764257984095	0.253051649736
1	4633	795.389447311845	0.253051649736
1	4638	796.71355348045	0.253051649736
1	4643	797.416465241976	0.253051649736
1	4650	798.483809014793	0.253051649736
1	4653	798.736860664529	0.484736355735
1	4660	799.021736629505	0.253051649736
1	4663	799.274788279241	0.324952150422
1	4668	800.178667158697	0.253051649736
1	4673	801.081857453825	0.253051649736
1	4678	801.755680929733	0.253051649736
1	4683	802.06755011621	0.253051649736
1	4688	802.327246716338	0.253051649736
1	4693	803.311220774178	0.253051649736
1	4698	804.394923622352	0.253051649736
1	4703	807.207820941711	0.253051649736
1	4708	808.264929124737	0.253051649736
1	4713	808.686204462149	0.253051649736
1	4722	810.168516554002	0.253051649736
1	4725	810.421568203738	0.343410730231
1	4728	810.674619853474	0.583291003762
1	4733	810.954136254422	0.253051649736
1	4738	811.433215582458	0.253051649736
1	4743	813.34914759933	0.253051649736
1	4748	815.98232407623	0.253051649736
1	4753	818.471678735532	0.253051649736
1	4758	819.340998371279	0.253051649736
1	4763	819.675032527567	0.253051649736
1	4770	821.040796495271	0.253051649736
1	4773	821.293848145007	0.487305591724
1	4778	822.276635138862	0.253051649736
1	4783	822.66088329668	0.253051649736
1	4788	823.083876243214	0.253051649736
1	4793	823.722820221618	0.253051649736
1	4798	824.178933567377	0.253051649736
1	4803	826.29778331201	0.253051649736
1	4810	827.005404406398	0.253051649736
1	4813	827.258456056134	0.301738251849
1	4818	828.869330156018	0.253051649736
1	4823	829.677722421394	0.253051649736
1	4830	831.344434905682	0.253051649736
1	4833	831.597486555418	0.435358644484
1	4838	833.578800693926	0.253051649736
1	4843	834.446300774216	0.253051649736
1	4848	837.38575142966	0.253051649736
1	4855	839.949683597127	0.253051649736
1	4860	840.202735246863	0.432915936479
1	4863	840.455786896599	0.254909076897
1	4870	841.545995454556	0.253051649736
1	4873	841.799047104292	0.396315892294
1	4878	842.815443548538	0.253051649736
1	4885	843.424230425949	0.253051649736
1	4888	843.677282075685	0.374967503591
1	4893	844.204132530798	0.253051649736
1	4898	845.46275029145	0.253051649736
1	4903	846.051037894872	0.253051649736
1	4908	846.700387231381	0.253051649736
1	4913	846.992369400993	0.253051649736
1	4921	849.104774332212	0.253051649736
1	4924	849.357825981948	0.481039331946
1	4929	850.71773685733	0.253051649736
1	4934	852.248531875632	0.253051649736
1	4941	853.426683720093	0.253051649736
1	4946	853.679735369829	0.285059047202
1	4949	853.932787019565	0.342443407157
1	4954	854.624702263234	0.253051649736
1	4959	855.48012579986	0.253051649736
1	4964	855.78322206708	0.253051649736
1	4971	856.524646182168	0.253051649736
1	4974	856.777697831904	0.382365039296
1	4979	857.522786971617	0.253051649736
1	4984	857.936013332946	0.253051649736
1	4989	859.486133420914	0.253051649736
1	4996	860.196193799519	0.253051649736
1	4999	860.449245449255	0.291783816304
1	5004	861.811739719649	0.253051649736
1	5013	862.260244473034	0.253051649736
1	5018	862.51329612277	0.334392533501
1	5021	862.766347772506	0.564520408732
1	5024	863.019399422242	0.510380339029
1	5029	863.732259723679	0.253051649736
1	5034	864.617091328759	0.253051649736
1	5039	865.080059714289	0.253051649736
1	5044	866.664568610321	0.253051649736
1	5049	868.064044756826	0.253051649736
1	5056	869.94073472755	0.253051649736
1	5061	870.193786377286	0.297765353318
1	5064	870.446838027022	0.479044621662
1	5071	870.917192242684	0.253051649736
1	5076	871.17024389242	0.483901651525
1	5079	871.423295542156	0.432734275844
1	5084	871.742868654415	0.253051649736
1	5089	873.068543609524	0.253051649736
1	5094	873.46251658981	0.253051649736
1	5099	873.777203457627	0.253051649736
1	5104	876.398582858563	0.253051649736
1	5109	877.298113327761	0.253051649736
1	5118	877.974146396914	0.253051649736
1	5121	878.22719804665	0.464582357815
1	5124	878.480249696386	0.536372308249
1	5129	879.210108980503	0.253051649736
1	5136	879.684949024201	0.253051649736
1	5139	879.938000673937	0.355439156237
1	5144	880.484379774361	0.253051649736
1	5149	880.84355282701	0.253051649736
1	5156	881.41745450574	0.253051649736
1	5159	881.670506155476	0.437355425468
1	5168	882.199736225122	0.253051649736
1	5171	882.452787874858	0.410589911024
1	5178	882.705839524594	0.568491338087
1	5181	882.95889117433	0.505367704075
1	5184	883.211942824066	0.576464161209
1	5189	883.725975120017	0.253051649736
1	5194	884.169622321423	0.253051649736
1	5199	888.41690132716	0.253051649736
1	5204	888.716969318674	0.253051649736
1	5209	889.523058978045	0.253051649736
1	5214	890.727400344028	0.253051649736
1	5219	891.3373579037	0.253051649736
1	5224	891.682618358086	0.253051649736
1	5229	892.789055073655	0.253051649736
1	5236	893.307891347426	0.253051649736
1	5239	893.560942997162	0.324345987968
1	5244	896.724144972655	0.253051649736
1	5251	897.017179972025	0.253051649736
1	5254	897.270231621761	0.494960852812
1	5259	898.021158672841	0.253051649736
1	5264	898.420048134394	0.253051649736
1	5270	899.742764884088	0.253051649736
1	5275	901.353143304439	0.253051649736
1	5282	902.756321242222	0.253051649736
1	5287	903.009372891958	0.358831960483
1	5290	903.262424541694	0.359855786339
1	5295	903.537545230835	0.253051649736
1	5302	903.942746702229	0.253051649736
1	5305	904.195798351965	0.400351711832
1	5310	904.47781277449	0.253051649736
1	5315	905.393181133341	0.253051649736
1	5320	905.904231706268	0.253051649736
1	5325	906.903355558578	0.253051649736
1	5330	907.838916258367	0.253051649736
1	5335	908.24387226442	0.253051649736
1	5340	908.900381946318	0.253051649736
1	5345	910.380480962082	0.253051649736
1	5352	910.803396870697	0.253051649736
1	5357	911.056448520433	0.404235338919
1	5360	911.309500170169	0.268522862705
1	5365	911.98138844087	0.253051649736
1	5374	912.881262201628	0.253051649736
1	5377	913.134313851364	0.370224541715
1	5380	913.3873655011	0.553420886577
1	5385	913.818440214288	0.253051649736
1	5390	914.256126957136	0.253051649736
1	5395	915.14315584913	0.253051649736
1	5400	916.651910913744	0.253051649736
1	5405	917.370144812453	0.253051649736
1	5412	917.923661297191	0.253051649736
1	5415	918.176712946927	0.493575934782
1	5420	919.305419586802	0.253051649736
1	5425	919.904138121608	0.253051649736
1	5432	920.320594113662	0.253051649736
1	5435	920.573645763398	0.461083959689
1	5440	922.001509846265	0.253051649736
1	5445	922.296923683113	0.253051649736
1	5452	923.615481916656	0.253051649736
1	5455	923.868533566392	0.335866569145
1	5460	924.431750146053	0.253051649736
1	5465	925.480720700202	0.253051649736
1	5470	926.001149015051	0.253051649736
1	5475	931.080987721252	0.253051649736
1	5482	931.339051724193	0.253051649736
1	5485	931.592103373929	0.462834202038
1	5490	931.888637433614	0.253051649736
1	5495	932.234320264592	0.253051649736
1	5500	933.047203753843	0.253051649736
1	5505	933.412806874457	0.253051649736
1	5510	934.095860118791	0.253051649736
1	5515	934.502765881194	0.253051649736
1	5520	934.856463810159	0.253051649736
1	5527	935.110435220319	0.253051649736
1	5530	935.363486870055	0.441846261195
1	5535	935.741553236107	0.253051649736
1	5540	937.399511755761	0.253051649736
1	5545	938.867954535584	0.253051649736
1	5550	939.815633489536	0.253051649736
1	5557	941.103614474473	0.253051649736
1	5560	941.356666124209	0.276937328062
1	5565	941.961437504255	0.253051649736
1	5570	942.760770985162	0.253051649736
1	5577	945.171358022949	0.253051649736
1	5580	945.424409672685	0.457612892912
1	5585	945.724379318663	0.253051649736
1	5590	946.774836860699	0.253051649736
1	5597	947.317158445672	0.253051649736
1	5600	947.570210095408	0.31603088259
1	5605	949.559701209866	0.253051649736
1	5612	950.824582936017	0.253051649736
1	5617	951.077634585753	0.36158436293
1	5627	951.561335923165	0.648127019094
1	5632	951.814387572901	0.723115681095
1	5635	952.067439222637	0.967718761926
1	5638	952.320490872373	1.056193205765
1	5645	952.573542522109	0.877863355915
1	5650	952.826594171845	0.425577227477
1	5655	953.079645821581	0.674126552164
1	5658	953.332697471317	0.572029351218
1	5661	953.585749121053	0.537905504637
1	5666	954.205249740122	0.253051649736
1	5671	957.327328737082	0.253051649736
1	5676	958.364832497513	0.253051649736
1	5683	960.705315269711	0.253051649736
1	5686	960.958366919447	0.457133344295
1	5691	961.978985857955	0.253051649736
1	5698	963.602240610294	0.253051649736
1	5701	963.85529226003	0.463711697609
1	5710	968.342074429649	0.253051649736
1	5713	968.595126079385	0.455885073103
1	5716	968.848177729121	0.516622068881
1	5721	969.189827487831	0.253051649736
1	5728	970.229372697516	0.253051649736
1	5731	970.482424347252	0.373824326606
1	5736	971.042294643088	0.253051649736
1	5741	971.522416184641	0.253051649736
1	5748	972.195842131722	0.253051649736
1	5751	972.448893781458	0.434808126432
1	5756	973.830722954742	0.253051649736
1	5763	974.269910799768	0.253051649736
1	5766	974.522962449504	0.282628451541
1	5771	975.214149477592	0.253051649736
1	5776	975.66016129699	0.253051649736
1	5783	977.933363324224	0.253051649736
1	5786	978.18641497396	0.331877141869
1	5791	978.930164555212	0.253051649736
1	5796	979.209883746328	0.253051649736
1	5801	981.775339611228	0.253051649736
1	5808	982.066396779048	0.253051649736
1	5811	982.319448428784	0.397802440134
1	5816	983.243041555452	0.253051649736
1	5821	984.327533412051	0.253051649736
1	5826	984.882339638002	0.253051649736
1	5831	985.841116434705	0.253051649736
1	5836	988.228170567115	0.253051649736
1	5841	989.916367209788	0.253051649736
1	5846	990.620861741719	0.253051649736
1	5851	992.681060764813	0.253051649736
1	5856	992.962711043879	0.253051649736
1	5861	993.78816018773	0.253051649736
1	5866	994.861116896631	0.253051649736
1	5871	995.317345250489	0.253051649736
1	5876	996.189041348761	0.253051649736
1	5881	996.518013419196	0.253051649736
1	5886	997.763596997283	0.253051649736
1	5891	998.07644681397	0.253051649736
1	5896	998.890546918924	0.253051649736
2	5	1.348733212586	0
2	10	2.389468822823	0
2	15	2.672667053554	0
2	20	4.014068536981	0
2	25	5.030631863063	0
2	32	6.371803754025	0
2	35	6.624855403761	0.196882840224
2	40	7.155594471913	0
2	45	7.831814880966	0
2	50	10.393714824156	0
2	55	11.8176533892	0
2	60	12.386588087105	0
2	65	12.65160303342	0
2	70	13.363219969345	0
2	77	14.289268782936	0
2	80	14.542320432672	0.252901187394
2	87	16.071243215038	0
2	90	16.324294864774	0.221366570224
2	95	17.293009169159	0
2	100	18.862119140766	0
2	105	21.509379860363	0
2	110	22.077432643309	0
2	115	23.009275820037	0
2	120	23.270788097103	0
2	125	24.123630828547	0
2	130	24.461477430295	0
2	135	26.973864744888	0
2	140	27.308661205983	0
2	145	28.500190884674	0
2	152	28.807120560398	0
2	155	29.060172210134	0.099981333461
2	160	30.227334242138	0
2	171	30.969875657767	0
2	174	31.222927307503	0.220469618059
2	179	31.475978957239	0.375896232079
2	182	31.729030606975	0.518111201396
2	185	31.982082256711	0.423360683884
2	190	32.663508749224	0
2	195	33.734032383096	0
2	204	34.506878431795	0
2	207	34.759930081531	0.057986316067
2	210	35.012981731267	0.290301425245
2	217	35.415403061795	0
2	220	35.668454711531	0.195206162172
2	225	35.934874973703	0
2	230	36.602441362264	0
2	237	37.371740539376	0
2	242	37.624792189112	0.040572954793
2	245	37.877843838848	0.125771171376
2	250	38.63950621724	0
2	255	39.74290299347	0
2	260	40.618525292508	0
2	265	41.053167609636	0
2	270	41.492604828067	0
2	277	42.474308989803	0
2	280	42.727360639539	0.193187658964
2	285	44.510671627391	0
2	290	44.778722855218	0
2	295	46.465645303847	0
2	302	47.021212196199	0
2	305	47.274263845935	0.054214965788
2	310	49.268347249794	0
2	315	50.34921207932	0
2	320	50.954882602163	0
2	325	51.22047478166	0
2	330	51.761648801997	0
2	335	52.426144639782	0
2	340	52.745301476053	0
2	345	53.613714047507	0
2	352	53.925873842099	0
2	356	54.409575179511	0.417852210914
2	361	54.790160783945	0
2	366	55.964322389008	0
2	371	56.333993876259	0
2	376	57.473912067158	0
2	383	58.626722547565	0
2	388	58.879774197301	0.106994743777
2	391	59.132825847037	0.093968693828
2	398	60.803776670994	0
2	401	61.05682832073	0.034443765733
2	406	62.759060307458	0
2	411	64.20048422412	0
2	416	64.601741829919	0
2	421	65.980911187048	0
2	428	66.342245985492	0
2	435	66.595297635228	0.122536513588
2	438	66.848349284964	0.155111849663
2	443	67.1014009347	0.271243615085
2	446	67.354452584436	0.077244749368
2	451	69.306205718416	0
2	456	70.213946478251	0
2	465	71.19855786051	0
2	468	71.451609510246	0.20309109069
2	471	71.704661159982	0.413406505613
2	476	72.830489640188	0
2	481	76.709090186456	0
2	486	77.388690124522	0
2	491	78.915509886518	0
2	496	79.949088192612	0
2	501	83.237004712941	0
2	506	83.832918083621	0
2	513	84.105315959534	0
2	518	84.35836760927	0.097394348184
2	521	84.611419259006	0.12555544105
2	526	84.980870465195	0
2	535	87.817550614495	0
2	542	88.070602264231	0.165809708799
2	545	88.323653913967	0.363277733227
2	548	88.576705563703	0.362109867665
2	555	88.829757213439	0.548189124173
2	558	89.082808863175	0.091925434819
2	561	89.335860512911	0.339659809809
2	566	90.907681010381	0
2	571	93.027609998862	0
2	578	95.378757239736	0
2	581	95.631808889472	0.053979669387
2	588	95.93838718039	0
2	593	96.191438830126	0.120515177582
2	596	96.444490479862	0.208219157994
2	603	97.730381511061	0
2	608	97.983433160797	0.115397127891
2	611	98.236484810533	0.223135986994
2	620	98.85516028498	0
2	623	99.108211934716	0.148187948784
2	626	99.361263584452	0.382022420713
2	631	101.376820842328	0
2	642	101.682209037039	0
2	645	101.935260686775	0.250471869252
2	648	102.188312336511	0.497740902168
2	651	102.441363986247	0.510230738951
2	658	105.039464520573	0
2	661	105.292516170309	0.042590241379
2	666	106.688834322729	0
2	671	109.159798083561	0
2	676	109.633978735891	0
2	681	110.070028875088	0
2	686	111.721626666915	0
2	691	112.608523879738	0
2	696	113.239422050476	0
2	703	113.989824148718	0
2	707	114.47352548613	0.386294382786
2	714	115.730760548915	0
2	719	115.983812198651	0.011031835751
2	722	116.236863848387	0.039373184843
2	727	118.189534710322	0
2	732	118.47899140464	0
2	737	118.798651902914	0
2	742	120.169090124548	0
2	751	122.166456799246	0
2	756	122.419508448982	0.235438422758
2	761	122.672560098718	0.258726155154
2	766	122.925611748454	0.327052422798
2	775	123.17866339819	0.396290988813
2	778	123.431715047926	0.338148512722
2	781	123.684766697662	0.265120938631
2	786	123.937818347398	0.518088648499
2	789	124.190869997134	0.762882817625
2	792	124.44392164687	0.496964328556
2	799	124.82586841755	0
2	802	125.078920067286	0.018487789995
2	807	125.525001582307	0
2	812	126.515436447734	0
2	817	127.288461848221	0
2	822	128.063699881303	0
2	827	128.780328260431	0
2	836	130.497976534912	0
2	839	130.751028184648	0.238920375894
2	842	131.004079834384	0.486533674079
2	847	131.458011595575	0
2	852	132.856590147657	0
2	857	134.356457715173	0
2	862	134.758045207856	0
2	867	135.38636993033	0
2	872	135.806806953233	0
2	879	136.369282272314	0
2	882	136.62233392205	0.179832572737
2	887	137.916850429914	0
2	896	138.796343972096	0
2	899	139.049395621832	0.07719006837
2	902	139.302447271568	0.293786588671
2	907	140.072780946415	0
2	912	144.474333157709	0
2	917	146.444718458876	0
2	922	148.270358395737	0
2	933	149.575134227496	0
2	938	149.828185877232	0.248028285906
2	941	150.081237526968	0.368058031398
2	944	150.334289176704	0.601754117065
2	947	150.58734082644	0.653450161108
2	952	151.144019787328	0
2	957	151.925450472271	0
2	962	152.794601790429	0
2	967	154.481635874267	0
2	972	157.464349945282	0
2	979	158.089385229527	0
2	982	158.342436879263	0.197157625275
2	991	158.758166942291	0
2	994	159.011218592027	0.160156646478
2	999	159.264270241763	0.310689148106
2	1002	159.517321891499	0.147438175348
2	1007	160.941937896294	0
2	1012	161.53344532593	0
2	1017	161.951264245956	0
2	1022	162.274587488868	0
2	1027	163.263884627091	0
2	1032	164.530245839304	0
2	1039	165.512417167624	0
2	1042	165.76546881736	0.074801723753
2	1047	166.034599430251	0
2	1052	167.392022353312	0
2	1058	167.875723690724	0.042570258365
2	1065	170.427425103747	0
2	1070	170.680476753483	0.059672795807
2	1073	170.933528403219	0.244447547834
2	1078	171.590213758192	0
2	1085	172.072634271208	0
2	1088	172.325685920944	0.189287111736
2	1093	173.590794755215	0
2	1098	174.724017603239	0
2	1103	176.177856181434	0
2	1108	177.073875825901	0
2	1113	177.354773155817	0
2	1118	178.330636357216	0
2	1125	178.626227189823	0
2	1128	178.879278839559	0.144882186196
2	1135	179.533225426345	0
2	1140	179.786277076081	0.136268196758
2	1143	180.039328725817	0.245960966977
2	1150	181.390429273091	0
2	1153	181.643480922827	0.096731391164
2	1158	182.019780950261	0
2	1165	183.512820436805	0
2	1168	183.765872086541	0.13938241463
2	1173	184.609674889613	0
2	1180	185.032293344695	0
2	1183	185.285344994431	0.020023570165
2	1188	187.376275686908	0
2	1193	187.769150184365	0
2	1198	189.718328730989	0
2	1203	191.140572033868	0
2	1210	191.463668066525	0
2	1213	191.716719716261	0.071024623657
2	1218	192.292340608819	0
2	1223	193.145683581315	0
2	1228	193.603523924073	0
2	1233	195.86901944214	0
2	1238	196.166449439371	0
2	1243	196.882729651091	0
2	1248	197.95691691103	0
2	1255	198.853193400609	0
2	1260	199.106245050345	0.212545295487
2	1263	199.359296700081	0.018331622329
2	1268	201.297571653526	0
2	1273	201.821504319407	0
2	1278	202.714618820582	0
2	1283	204.702330323935	0
2	1288	206.290398870061	0
2	1295	207.56097034625	0
2	1298	207.814021995986	0.223136457364
2	1303	208.086806726273	0
2	1308	210.296963955616	0
2	1313	211.52902126975	0
2	1318	214.646968516497	0
2	1325	216.938367117866	0
2	1328	217.191418767602	0.194139812194
2	1333	218.755093754146	0
2	1340	221.945650334723	0
2	1343	222.198701984459	0.194127123918
2	1348	222.778269923257	0
2	1353	223.540542166507	0
2	1358	225.802890907318	0
2	1363	227.574383271226	0
2	1368	228.201447672035	0
2	1373	228.642766960341	0
2	1378	229.432557831373	0
2	1387	231.918703607639	0
2	1390	232.171755257375	0.253001564613
2	1393	232.424806907111	0.389575724133
2	1398	233.075282417523	0
2	1403	234.301533128397	0
2	1409	234.963043595454	0
2	1414	236.162524161568	0
2	1421	238.074810713292	0
2	1424	238.327862363028	0.114567706183
2	1429	239.937774193687	0
2	1434	240.352489822419	0
2	1439	240.947753302441	0
2	1444	242.144192556429	0
2	1449	243.395835301383	0
2	1454	243.679839491627	0
2	1459	245.41071135236	0
2	1466	245.996628894755	0
2	1471	246.249680544491	0.077149274754
2	1474	246.502732194227	0.031189536047
2	1481	246.790599844124	0
2	1484	247.04365149386	0.244012719417
2	1489	247.531343974643	0
2	1496	248.305344770091	0
2	1499	248.558396419827	0.24769386361
2	1504	250.505803116734	0
2	1509	250.774792074616	0
2	1514	252.654416697056	0
2	1519	255.77076787476	0
2	1524	256.35515698927	0
2	1529	256.715268327598	0
2	1534	256.993773243314	0
2	1539	257.545895129637	0
2	1544	258.586151734571	0
2	1549	259.29344360152	0
2	1554	260.204489011007	0
2	1559	262.015477204597	0
2	1564	263.109531628596	0
2	1569	263.598471865371	0
2	1574	264.257879575755	0
2	1579	264.930852142291	0
2	1584	266.277397234005	0
2	1589	267.837214246538	0
2	1594	268.109998616268	0
2	1599	268.510990770896	0
2	1606	268.980992615179	0
2	1609	269.234044264915	0.072247149948
2	1614	272.345533480789	0
2	1619	273.609082370279	0
2	1624	274.492774619842	0
2	1629	274.782177513416	0
2	1634	275.493212105142	0
2	1639	278.30563971656	0
2	1644	279.34090587932	0
2	1649	279.655521441515	0
2	1654	281.324239198611	0
2	1659	284.586151140579	0
2	1664	284.851980698593	0
2	1669	285.624008558919	0
2	1674	286.373318530924	0
2	1683	288.533476612691	0
2	1686	288.786528262427	0.13624138679
2	1693	289.039579912163	0.26275156907
2	1696	289.292631561899	0.214555402529
2	1699	289.545683211635	0.34247215886
2	1704	289.868440584867	0
2	1711	290.447856050761	0
2	1716	290.700907700497	0.080586725556
2	1719	290.953959350233	0.077282294705
2	1724	292.191736601632	0
2	1729	293.616279737961	0
2	1736	294.2075630523	0
2	1739	294.460614702036	0.059496631304
2	1744	294.846035173666	0
2	1749	295.814659603042	0
2	1754	297.637208975952	0
2	1760	298.529983137767	0
2	1765	300.279389632929	0
2	1772	300.563444787164	0
2	1775	300.8164964369	0.15348121486
2	1780	301.966366921878	0
2	1785	303.6138906151	0
2	1790	305.429607008871	0
2	1795	305.903089487624	0
2	1802	306.193072855063	0
2	1809	306.446124504799	0.139017238575
2	1814	306.699176154535	0.111440430421
2	1817	306.952227804271	0.259459431001
2	1820	307.205279454007	0.253451994014
2	1825	307.472655006343	0
2	1832	308.370997215431	0
2	1835	308.624048865167	0.147043308248
2	1840	309.139732278157	0
2	1845	309.497348794096	0
2	1850	311.767900172209	0
2	1855	312.510992247574	0
2	1862	313.70423035952	0
2	1865	313.957282009256	0.15129800898
2	1870	315.097012697059	0
2	1875	316.306854002818	0
2	1880	316.631316320094	0
2	1885	317.807004912792	0
2	1890	318.712387104719	0
2	1897	319.337433322076	0
2	1900	319.590484971812	0.235212134122
2	1905	319.898646426117	0
2	1910	320.961941390566	0
2	1915	321.711644999736	0
2	1920	322.005201905061	0
2	1925	322.753013976931	0
2	1930	324.120050965396	0
2	1935	324.453884064737	0
2	1940	324.867167510808	0
2	1949	326.680398825985	0
2	1954	326.933450475721	0.177685343402
2	1959	327.186502125457	0.302228075167
2	1964	327.439553775193	0.279697099703
2	1969	327.692605424929	0.27057072057
2	1972	327.945657074665	0.340571702231
2	1975	328.198708724401	0.499308086683
2	1980	331.074883127881	0
2	1985	331.71687830928	0
2	1992	331.990718987301	0
2	1995	332.243770637037	0.185021879913
2	2000	332.908648932253	0
2	2007	334.204052352866	0
2	2010	334.457104002602	0.209402794762
2	2017	336.927533419429	0
2	2020	337.180585069165	0.105421153902
2	2027	337.529379237921	0
2	2030	337.782430887657	0.181469980028
2	2037	339.166415552484	0
2	2042	339.41946720222	0.099804891566
2	2045	339.672518851956	0.026417567522
2	2050	341.005677207059	0
2	2055	342.033665977492	0
2	2060	344.726308871809	0
2	2065	346.860796117416	0
2	2070	347.18093622877	0
2	2075	347.548364999816	0
2	2082	347.877872415717	0
2	2087	348.130924065453	0.184987946929
2	2092	348.383975715189	0.063261804948
2	2097	348.637027364925	0.010636601472
2	2100	348.890079014661	0.170615883095
2	2105	349.737039522702	0
2	2111	350.825283036337	0
2	2118	352.362726635172	0
2	2121	352.615778284908	0.184149454453
2	2126	353.053242141737	0
2	2133	354.561481155939	0
2	2136	354.814532805675	0.237038922262
2	2141	357.806189747556	0
2	2146	358.32230922868	0
2	2151	358.635163613305	0
2	2156	359.197477943455	0
2	2161	359.619302981209	0
2	2166	360.444645798696	0
2	2171	361.671867732642	0
2	2176	362.055385653634	0
2	2181	364.056741308955	0
2	2186	365.587591486237	0
2	2191	366.886788289952	0
2	2196	368.718242468305	0
2	2201	369.312353593207	0
2	2206	371.979792665284	0
2	2211	375.229298837712	0
2	2216	376.483636271282	0
2	2225	376.926760603398	0
2	2228	377.179812253134	0.177202709302
2	2231	377.43286390287	0.313920368835
2	2236	377.858141055318	0
2	2241	381.193115263383	0
2	2246	384.563800787346	0
2	2251	386.880168478703	0
2	2260	389.038969571769	0
2	2263	389.292021221505	0.199021827768
2	2266	389.545072871241	0.256248957732
2	2271	390.286858190755	0
2	2276	391.71857493507	0
2	2281	392.412403335452	0
2	2286	392.882118188596	0
2	2291	394.846061412147	0
2	2296	399.126998441772	0
2	2303	401.578240867939	0
2	2306	401.831292517675	0.202712898961
2	2313	403.981988593027	0
2	2316	404.235040242763	0.128919210379
2	2323	404.835471597028	0
2	2328	405.088523246764	0.090021477615
2	2331	405.3415748965	0.096009539804
2	2336	405.955218588632	0
2	2341	409.060573567105	0
2	2346	411.603897220256	0
2	2351	414.470535815529	0
2	2356	417.490743584866	0
2	2363	419.875801281316	0
2	2368	420.128852931052	0.018559390648
2	2373	420.381904580788	0.080454651942
2	2376	420.634956230524	0.06214119871
2	2381	421.418188879872	0
2	2386	422.544801299159	0
2	2393	423.444825544175	0
2	2396	423.697877193911	0.108815485599
2	2403	424.203129247174	0
2	2406	424.45618089691	0.080634552963
2	2411	424.841683310328	0
2	2416	425.662300628547	0
2	2423	427.108134445005	0
2	2430	427.361186094741	0.103701822808
2	2433	427.614237744477	0.101538493663
2	2436	427.867289394213	0.28199157201
2	2441	428.796652528819	0
2	2446	429.690885705097	0
2	2451	433.302274330677	0
2	2456	441.97477926459	0
2	2462	442.458480602002	0.17082745192
2	2467	443.816104213519	0
2	2472	444.197136552258	0
2	2479	446.401084414697	0
2	2486	446.654136064433	0.039497506677
2	2489	446.907187714169	0.077442277911
2	2492	447.160239363905	0.310834770349
2	2497	448.797435997228	0
2	2502	449.118048149353	0
2	2507	450.229352737555	0
2	2512	452.073015423835	0
2	2517	453.320041817958	0
2	2524	454.317548577678	0
2	2529	454.570600227414	0.16448000231
2	2534	454.82365187715	0.073360453132
2	2537	455.076703526886	0.208433415101
2	2542	456.029135441671	0
2	2549	456.934903186407	0
2	2554	457.187954836143	0.127332917304
2	2557	457.441006485879	0.193651859367
2	2562	457.921342199005	0
2	2571	458.179805330536	0
2	2574	458.432856980272	0.105660321625
2	2579	458.685908630008	0.350595476063
2	2582	458.938960279744	0.142335652909
2	2587	459.340542662243	0
2	2592	460.172596459978	0
2	2599	461.19838864531	0
2	2602	461.451440295046	0.227732195131
2	2609	462.820116262386	0
2	2612	463.073167912122	0.076146499226
2	2617	463.431413088998	0
2	2622	464.219968789982	0
2	2627	464.493460521292	0
2	2632	464.79744160157	0
2	2637	465.336963055336	0
[...]
7	4559	773.004683434372	0
7	4564	773.257735084108	0
7	4568	773.74143642152	0
7	4573	775.533448530218	0
7	4578	779.929422398556	0
7	4583	784.287303224643	0
7	4588	784.665764895378	0
7	4593	785.743174643967	0
7	4598	786.450671536095	0
7	4603	787.764832392598	0
7	4608	788.282491498279	0
7	4615	789.468288290641	0
7	4618	789.721339940377	0
7	4623	790.629807439292	0
7	4628	793.764257984095	0
7	4633	795.389447311845	0
7	4638	796.71355348045	0
7	4643	797.416465241976	0
7	4650	798.483809014793	0
7	4653	798.736860664529	0
7	4660	799.021736629505	0
7	4663	799.274788279241	0
7	4668	800.178667158697	0
7	4673	801.081857453825	0
7	4678	801.755680929733	0
7	4683	802.06755011621	0
7	4688	802.327246716338	0
7	4693	803.311220774178	0
7	4698	804.394923622352	0
7	4703	807.207820941711	0
7	4708	808.264929124737	0
7	4713	808.686204462149	0
7	4722	810.168516554002	0
7	4725	810.421568203738	0
7	4728	810.674619853474	0
7	4733	810.954136254422	0
7	4738	811.433215582458	0
7	4743	813.34914759933	0
7	4748	815.98232407623	0
7	4753	818.471678735532	0
7	4758	819.340998371279	0
7	4763	819.675032527567	0
7	4770	821.040796495271	0
7	4773	821.293848145007	0
7	4778	822.276635138862	0
7	4783	822.66088329668	0
7	4788	823.083876243214	0
7	4793	823.722820221618	0
7	4798	824.178933567377	0
7	4803	826.29778331201	0
7	4810	827.005404406398	0
7	4813	827.258456056134	0
7	4818	828.869330156018	0
7	4823	829.677722421394	0
7	4830	831.344434905682	0
7	4833	831.597486555418	0
7	4838	833.578800693926	0
7	4843	834.446300774216	0
7	4848	837.38575142966	0
7	4855	839.949683597127	0
7	4860	840.202735246863	0
7	4863	840.455786896599	0
7	4870	841.545995454556	0
7	4873	841.799047104292	0
7	4878	842.815443548538	0
7	4885	843.424230425949	0
7	4888	843.677282075685	0
7	4893	844.204132530798	0
7	4898	845.46275029145	0
7	4903	846.051037894872	0
7	4908	846.700387231381	0
7	4913	846.992369400993	0
7	4921	849.104774332212	0
7	4924	849.357825981948	0
7	4929	850.71773685733	0
7	4934	852.248531875632	0
7	4941	853.426683720093	0
7	4946	853.679735369829	0
7	4949	853.932787019565	0
7	4954	854.624702263234	0
7	4959	855.48012579986	0
7	4964	855.78322206708	0
7	4971	856.524646182168	0
7	4974	856.777697831904	0
7	4979	857.522786971617	0
7	4984	857.936013332946	0
7	4989	859.486133420914	0
7	4996	860.196193799519	0
7	4999	860.449245449255	0
7	5004	861.811739719649	0
7	5013	862.260244473034	0
7	5018	862.51329612277	0
7	5021	862.766347772506	0
7	5024	863.019399422242	0
7	5029	863.732259723679	0
7	5034	864.617091328759	0
7	5039	865.080059714289	0
7	5044	866.664568610321	0
7	5049	868.064044756826	0
7	5056	869.94073472755	0
7	5061	870.193786377286	0
7	5064	870.446838027022	0
7	5071	870.917192242684	0
7	5076	871.17024389242	0
7	5079	871.423295542156	0
7	5084	871.742868654415	0
7	5089	873.068543609524	0
7	5094	873.46251658981	0
7	5099	873.777203457627	0
7	5104	876.398582858563	0
7	5109	877.298113327761	0
7	5118	877.974146396914	0
7	5121	878.22719804665	0
7	5124	878.480249696386	0
7	5129	879.210108980503	0
7	5136	879.684949024201	0
7	5139	879.938000673937	0
7	5144	880.484379774361	0
7	5149	880.84355282701	0
7	5156	881.41745450574	0
7	5159	881.670506155476	0
7	5168	882.199736225122	0
7	5171	882.452787874858	0
7	5178	882.705839524594	0
7	5181	882.95889117433	0
7	5184	883.211942824066	0
7	5189	883.725975120017	0
7	5194	884.169622321423	0
7	5199	888.41690132716	0
7	5204	888.716969318674	0
7	5209	889.523058978045	0
7	5214	890.727400344028	0
7	5219	891.3373579037	0
7	5224	891.682618358086	0
7	5229	892.789055073655	0
7	5236	893.307891347426	0
7	5239	893.560942997162	0
7	5244	896.724144972655	0
7	5251	897.017179972025	0
7	5254	897.270231621761	0
7	5259	898.021158672841	0
7	5264	898.420048134394	0
7	5270	899.742764884088	0
7	5275	901.353143304439	0
7	5282	902.756321242222	0
7	5287	903.009372891958	0
7	5290	903.262424541694	0
7	5295	903.537545230835	0
7	5302	903.942746702229	0
7	5305	904.195798351965	0
7	5310	904.47781277449	0
7	5315	905.393181133341	0
7	5320	905.904231706268	0
7	5325	906.903355558578	0
7	5330	907.838916258367	0
7	5335	908.24387226442	0
7	5340	908.900381946318	0
7	5345	910.380480962082	0
7	5352	910.803396870697	0
7	5357	911.056448520433	0
7	5360	911.309500170169	0
7	5365	911.98138844087	0
7	5374	912.881262201628	0
7	5377	913.134313851364	0
7	5380	913.3873655011	0
7	5385	913.818440214288	0
7	5390	914.256126957136	0
7	5395	915.14315584913	0
7	5400	916.651910913744	0
7	5405	917.370144812453	0
7	5412	917.923661297191	0
7	5415	918.176712946927	0
7	5420	919.305419586802	0
7	5425	919.904138121608	0
7	5432	920.320594113662	0
7	5435	920.573645763398	0
7	5440	922.001509846265	0
7	5445	922.296923683113	0
7	5452	923.615481916656	0
7	5455	923.868533566392	0
7	5460	924.431750146053	0
7	5465	925.480720700202	0
7	5470	926.001149015051	0
7	5475	931.080987721252	0
7	5482	931.339051724193	0
7	5485	931.592103373929	0
7	5490	931.888637433614	0
7	5495	932.234320264592	0
7	5500	933.047203753843	0
7	5505	933.412806874457	0
7	5510	934.095860118791	0
7	5515	934.502765881194	0
7	5520	934.856463810159	0
7	5527	935.110435220319	0
7	5530	935.363486870055	0
7	5535	935.741553236107	0
7	5540	937.399511755761	0
7	5545	938.867954535584	0
7	5550	939.815633489536	0
7	5557	941.103614474473	0
7	5560	941.356666124209	0
7	5565	941.961437504255	0
7	5570	942.760770985162	0
7	5577	945.171358022949	0
7	5580	945.424409672685	0
7	5585	945.724379318663	0
7	5590	946.774836860699	0
7	5597	947.317158445672	0
7	5600	947.570210095408	0
7	5605	949.559701209866	0
7	5612	950.824582936017	0
7	5617	951.077634585753	0
7	5627	951.561335923165	0
7	5632	951.814387572901	0
7	5635	952.067439222637	0
7	5638	952.320490872373	0
7	5645	952.573542522109	0
7	5650	952.826594171845	0
7	5655	953.079645821581	0
7	5658	953.332697471317	0
7	5661	953.585749121053	0
7	5666	954.205249740122	0
7	5671	957.327328737082	0
7	5676	958.364832497513	0
7	5683	960.705315269711	0
7	5686	960.958366919447	0
7	5691	961.978985857955	0
7	5698	963.602240610294	0
7	5701	963.85529226003	0
7	5710	968.342074429649	0
7	5713	968.595126079385	0
7	5716	968.848177729121	0
7	5721	969.189827487831	0
7	5728	970.229372697516	0
7	5731	970.482424347252	0
7	5736	971.042294643088	0
7	5741	971.522416184641	0
7	5748	972.195842131722	0
7	5751	972.448893781458	0
7	5756	973.830722954742	0
7	5763	974.269910799768	0
7	5766	974.522962449504	0
7	5771	975.214149477592	0
7	5776	975.66016129699	0
7	5783	977.933363324224	0
7	5786	978.18641497396	0
7	5791	978.930164555212	0
7	5796	979.209883746328	0
7	5801	981.775339611228	0
7	5808	982.066396779048	0
7	5811	982.319448428784	0
7	5816	983.243041555452	0
7	5821	984.327533412051	0
7	5826	984.882339638002	0
7	5831	985.841116434705	0
7	5836	988.228170567115	0
7	5841	989.916367209788	0
7	5846	990.620861741719	0
7	5851	992.681060764813	0
7	5856	992.962711043879	0
7	5861	993.78816018773	0
7	5866	994.861116896631	0
7	5871	995.317345250489	0
7	5876	996.189041348761	0
7	5881	996.518013419196	0
7	5886	997.763596997283	0
7	5891	998.07644681397	0
7	5896	998.890546918924	0
8	31	6.371803754025	0.196882840224
8	76	14.289268782936	0.252901187394
8	86	16.071243215038	0.221366570224
8	151	28.807120560398	0.099981333461
8	170	30.969875657767	0.220469618059
8	173	31.222927307503	0.375896232079
8	178	31.475978957239	0.518111201396
8	181	31.729030606975	0.423360683884
8	203	34.506878431795	0.057986316067
8	206	34.759930081531	0.290301425245
8	216	35.415403061795	0.195206162172
8	236	37.371740539376	0.040572954793
8	241	37.624792189112	0.125771171376
8	276	42.474308989803	0.193187658964
8	301	47.021212196199	0.054214965788
8	353	54.156523529775	0.417852210914
8	382	58.626722547565	0.106994743777
8	387	58.879774197301	0.093968693828
8	397	60.803776670994	0.034443765733
8	427	66.342245985492	0.122536513588
8	434	66.595297635228	0.155111849663
8	437	66.848349284964	0.271243615085
8	442	67.1014009347	0.077244749368
8	464	71.19855786051	0.20309109069
8	467	71.451609510246	0.413406505613
8	512	84.105315959534	0.097394348184
8	517	84.35836760927	0.12555544105
8	534	87.817550614495	0.165809708799
8	541	88.070602264231	0.363277733227
8	544	88.323653913967	0.362109867665
8	547	88.576705563703	0.548189124173
8	554	88.829757213439	0.091925434819
8	557	89.082808863175	0.339659809809
8	577	95.378757239736	0.053979669387
8	587	95.93838718039	0.120515177582
8	592	96.191438830126	0.208219157994
8	602	97.730381511061	0.115397127891
8	607	97.983433160797	0.223135986994
8	619	98.85516028498	0.148187948784
8	622	99.108211934716	0.382022420713
8	641	101.682209037039	0.250471869252
8	644	101.935260686775	0.497740902168
8	647	102.188312336511	0.510230738951
8	657	105.039464520573	0.042590241379
8	704	114.220473836394	0.386294382786
8	713	115.730760548915	0.011031835751
8	718	115.983812198651	0.039373184843
8	750	122.166456799246	0.235438422758
8	755	122.419508448982	0.258726155154
8	760	122.672560098718	0.327052422798
8	765	122.925611748454	0.396290988813
8	774	123.17866339819	0.338148512722
8	777	123.431715047926	0.265120938631
8	780	123.684766697662	0.518088648499
8	785	123.937818347398	0.762882817625
8	788	124.190869997134	0.496964328556
8	798	124.82586841755	0.018487789995
8	835	130.497976534912	0.238920375894
8	838	130.751028184648	0.486533674079
8	878	136.369282272314	0.179832572737
8	895	138.796343972096	0.07719006837
8	898	139.049395621832	0.293786588671
8	932	149.575134227496	0.248028285906
8	937	149.828185877232	0.368058031398
8	940	150.081237526968	0.601754117065
8	943	150.334289176704	0.653450161108
8	978	158.089385229527	0.197157625275
8	990	158.758166942291	0.160156646478
8	993	159.011218592027	0.310689148106
8	998	159.264270241763	0.147438175348
8	1038	165.512417167624	0.074801723753
8	1055	167.622672040988	0.042570258365
8	1064	170.427425103747	0.059672795807
8	1069	170.680476753483	0.244447547834
8	1084	172.072634271208	0.189287111736
8	1124	178.626227189823	0.144882186196
8	1134	179.533225426345	0.136268196758
8	1139	179.786277076081	0.245960966977
8	1149	181.390429273091	0.096731391164
8	1164	183.512820436805	0.13938241463
8	1179	185.032293344695	0.020023570165
8	1209	191.463668066525	0.071024623657
8	1254	198.853193400609	0.212545295487
8	1259	199.106245050345	0.018331622329
8	1294	207.56097034625	0.223136457364
8	1324	216.938367117866	0.194139812194
8	1339	221.945650334723	0.194127123918
8	1386	231.918703607639	0.253001564613
8	1389	232.171755257375	0.389575724133
8	1420	238.074810713292	0.114567706183
8	1465	245.996628894755	0.077149274754
8	1470	246.249680544491	0.031189536047
8	1480	246.790599844124	0.244012719417
8	1495	248.305344770091	0.24769386361
8	1605	268.980992615179	0.072247149948
8	1682	288.533476612691	0.13624138679
8	1685	288.786528262427	0.26275156907
8	1692	289.039579912163	0.214555402529
8	1695	289.292631561899	0.34247215886
8	1710	290.447856050761	0.080586725556
8	1715	290.700907700497	0.077282294705
8	1735	294.2075630523	0.059496631304
8	1771	300.563444787164	0.15348121486
8	1801	306.193072855063	0.139017238575
8	1808	306.446124504799	0.111440430421
8	1813	306.699176154535	0.259459431001
8	1816	306.952227804271	0.253451994014
8	1831	308.370997215431	0.147043308248
8	1861	313.70423035952	0.15129800898
8	1896	319.337433322076	0.235212134122
8	1948	326.680398825985	0.177685343402
8	1953	326.933450475721	0.302228075167
8	1958	327.186502125457	0.279697099703
8	1963	327.439553775193	0.27057072057
8	1968	327.692605424929	0.340571702231
8	1971	327.945657074665	0.499308086683
8	1991	331.990718987301	0.185021879913
8	2006	334.204052352866	0.209402794762
8	2016	336.927533419429	0.105421153902
8	2026	337.529379237921	0.181469980028
8	2036	339.166415552484	0.099804891566
8	2041	339.41946720222	0.026417567522
8	2081	347.877872415717	0.184987946929
8	2086	348.130924065453	0.063261804948
8	2091	348.383975715189	0.010636601472
8	2096	348.637027364925	0.170615883095
8	2117	352.362726635172	0.184149454453
8	2132	354.561481155939	0.237038922262
8	2224	376.926760603398	0.177202709302
8	2227	377.179812253134	0.313920368835
8	2259	389.038969571769	0.199021827768
8	2262	389.292021221505	0.256248957732
8	2302	401.578240867939	0.202712898961
8	2312	403.981988593027	0.128919210379
8	2322	404.835471597028	0.090021477615
8	2327	405.088523246764	0.096009539804
8	2362	419.875801281316	0.018559390648
8	2367	420.128852931052	0.080454651942
8	2372	420.381904580788	0.06214119871
8	2392	423.444825544175	0.108815485599
8	2402	424.203129247174	0.080634552963
8	2422	427.108134445005	0.103701822808
8	2429	427.361186094741	0.101538493663
8	2432	427.614237744477	0.28199157201
8	2459	442.205428952266	0.17082745192
8	2478	446.401084414697	0.039497506677
8	2485	446.654136064433	0.077442277911
8	2488	446.907187714169	0.310834770349
8	2523	454.317548577678	0.16448000231
8	2528	454.570600227414	0.073360453132
8	2533	454.82365187715	0.208433415101
8	2548	456.934903186407	0.127332917304
8	2553	457.187954836143	0.193651859367
8	2570	458.179805330536	0.105660321625
8	2573	458.432856980272	0.350595476063
8	2578	458.685908630008	0.142335652909
8	2598	461.19838864531	0.227732195131
8	2608	462.820116262386	0.076146499226
8	2648	466.935069291866	0.053509212692
8	2688	477.279432567654	0.038203085081
8	2703	478.847716197764	0.166055139891
8	2720	482.316113107877	0.150673990317
8	2723	482.569164757613	0.340347714018
8	2798	493.851712252621	0.04105593278
8	2810	494.896392342527	0.372048298082
8	2819	496.99198615715	0.057001831805
8	2851	501.83871809313	0.214972964553
8	2854	502.091769742866	0.285655498355
8	2869	504.564658012972	0.185463755196
8	2874	504.817709662708	0.014559210084
8	2884	506.665090142594	0.093023682989
8	2909	513.286744294082	0.241079826793
8	2914	513.539795943818	0.142483811719
8	2959	521.028907763458	0.12650766074
8	3004	527.584447856148	0.057470963755
8	3019	529.734969036902	0.250234684303
8	3094	540.609992064289	0.089810999112
8	3099	540.863043714025	0.111494779463
8	3104	541.116095363761	0.126734363908
8	3109	541.369147013497	0.147315883662
8	3119	543.104752259246	0.244687772006
8	3124	543.357803908982	0.009020369494
8	3161	548.446657538559	0.474216776992
8	3165	548.699709188295	0.03204186405
8	3200	555.231314066757	0.112914300011
8	3210	555.872894000216	0.108631301569
8	3275	571.533912360153	0.005039778671
8	3292	573.191598419062	0.168870407836
8	3295	573.444650068798	0.385672411413
8	3300	573.697701718534	0.171617063083
8	3322	579.043189044956	0.184521440358
8	3327	579.296240694692	0.288482569989
8	3330	579.549292344428	0.265408710021
8	3340	581.369963551402	0.230192950373
8	3345	581.623015201138	0.198872765072
8	3350	581.876066850874	0.005421542617
8	3370	587.052288930983	0.181887720349
8	3375	587.305340580719	0.225241656142
8	3410	594.468046413105	0.24552509575
8	3415	594.721098062841	0.122446548637
8	3420	594.974149712577	0.037420987867
8	3430	596.094256943457	0.237830629695
8	3442	596.69240495722	0.078865453862
8	3445	596.945456606956	0.275133323541
8	3480	605.563059287465	0.209229218229
8	3521	615.426275163454	0.121823255811
8	3526	615.67932681319	0.238136794723
8	3553	620.801103715194	0.203209749609
8	3558	621.05415536493	0.271108568459
8	3561	621.307207014666	0.443541882382
8	3570	621.560258664402	0.232981096512
8	3575	621.813310314138	0.385316408872
8	3578	622.066361963874	0.57589051338
8	3581	622.31941361361	0.631529697988
8	3616	632.436119179469	0.137473120665
8	3631	634.115262809866	0.199424906851
8	3646	636.753257910645	0.03897921699
8	3716	647.378852529723	0.120283668667
8	3741	652.546970847429	0.065285800447
8	3746	652.800022497165	0.022899498031
8	3771	656.218391419265	0.041516946257
8	3801	662.800053446755	0.128243340554
8	3815	663.79760573671	0.183902011807
8	3818	664.050657386446	0.391611533762
8	3821	664.303709036182	0.540013039949
8	3838	666.085645333239	0.234513023206
8	3843	666.338696982975	0.437992004179
8	3846	666.591748632711	0.419555047844
8	3856	667.517677862151	0.024016202469
8	3891	671.7370592732	0.21266294096
8	3894	671.990110922936	0.426173988167
8	3897	672.243162572672	0.619972837345
8	3922	675.352529881293	0.167971969415
8	3927	675.605581531029	0.14716667319
8	3939	676.608558933109	0.246828631319
8	3942	676.861610582845	0.31847524474
8	3952	677.554452400809	0.06934538079
8	4009	687.697322505479	0.112442427572
8	4012	687.950374155215	0.262939229881
8	4017	688.203425804951	0.15621756216
8	4022	688.456477454687	0.154845928148
8	4032	690.701083563366	0.112072262336
8	4072	696.094262128992	0.135211266718
8	4087	697.652605327827	0.106923599278
8	4102	699.421491683629	0.182296973947
8	4107	699.674543333365	0.174111629868
8	4127	703.244871353424	0.249942522482
8	4174	711.033164297571	0.151893753643
8	4179	711.286215947307	0.36491375577
8	4182	711.539267597043	0.278755720577
8	4187	711.792319246779	0.106096387722
8	4192	712.045370896515	0.245866044978
8	4220	719.371445988413	0.241124168756
8	4223	719.624497638149	0.43061738665
8	4233	720.97353632714	0.120238688689
8	4248	722.562009987067	0.130129207556
8	4263	725.24493083841	0.195082008085
8	4268	725.497982488146	0.250373985988
8	4318	734.809285418987	0.170698843151
8	4348	738.824814702497	0.020359496415
8	4353	739.077866352233	0.166123524612
8	4368	740.78052342339	0.030775717389
8	4418	749.397495326371	0.205275608065
8	4428	750.160617656549	0.168694254996
8	4493	762.748499599402	0.040183942283
8	4508	767.484851892134	0.035560614812
8	4518	768.399015143606	0.01723169154
8	4545	772.211541625263	0.200501121597
8	4548	772.464593274999	0.419732925006
8	4558	773.004683434372	0.101912326218
8	4565	773.488384771784	0.285036719215
8	4614	789.468288290641	0.06394727657
8	4649	798.483809014793	0.231684705999
8	4659	799.021736629505	0.071900500686
8	4721	810.168516554002	0.090359080495
8	4724	810.421568203738	0.330239354026
8	4769	821.040796495271	0.234253941988
8	4809	827.005404406398	0.048686602113
8	4829	831.344434905682	0.182306994748
8	4854	839.949683597127	0.179864286743
8	4859	840.202735246863	0.001857427161
8	4869	841.545995454556	0.143264242558
8	4884	843.424230425949	0.121915853855
8	4920	849.104774332212	0.22798768221
8	4940	853.426683720093	0.032007397466
8	4945	853.679735369829	0.089391757421
8	4970	856.524646182168	0.12931338956
8	4995	860.196193799519	0.038732166568
8	5012	862.260244473034	0.081340883765
8	5017	862.51329612277	0.311468758996
8	5020	862.766347772506	0.257328689293
8	5055	869.94073472755	0.044713703582
8	5060	870.193786377286	0.225992971926
8	5070	870.917192242684	0.230850001789
8	5075	871.17024389242	0.179682626108
8	5117	877.974146396914	0.211530708079
8	5120	878.22719804665	0.283320658513
8	5135	879.684949024201	0.102387506501
8	5155	881.41745450574	0.184303775732
8	5167	882.199736225122	0.157538261288
8	5170	882.452787874858	0.315439688351
8	5177	882.705839524594	0.252316054339
8	5180	882.95889117433	0.323412511473
8	5235	893.307891347426	0.071294338232
8	5250	897.017179972025	0.241909203076
8	5281	902.756321242222	0.105780310747
8	5286	903.009372891958	0.106804136603
8	5301	903.942746702229	0.147300062096
8	5351	910.803396870697	0.151183689183
8	5356	911.056448520433	0.015471212969
8	5373	912.881262201628	0.117172891979
8	5376	913.134313851364	0.300369236841
8	5411	917.923661297191	0.240524285046
8	5431	920.320594113662	0.208032309953
8	5451	923.615481916656	0.082814919409
8	5481	931.339051724193	0.209782552302
8	5526	935.110435220319	0.188794611459
8	5556	941.103614474473	0.023885678326
8	5576	945.171358022949	0.204561243176
8	5596	947.317158445672	0.062979232854
8	5611	950.824582936017	0.108532713194
8	5624	951.308284273429	0.395075369358
8	5626	951.561335923165	0.470064031359
8	5631	951.814387572901	0.71466711219
8	5634	952.067439222637	0.803141556029
8	5637	952.320490872373	0.624811706179
8	5644	952.573542522109	0.172525577741
8	5649	952.826594171845	0.421074902428
8	5654	953.079645821581	0.318977701482
8	5657	953.332697471317	0.284853854901
8	5682	960.705315269711	0.204081694559
8	5697	963.602240610294	0.210660047873
8	5709	968.342074429649	0.202833423367
8	5712	968.595126079385	0.263570419145
8	5727	970.229372697516	0.12077267687
8	5747	972.195842131722	0.181756476696
8	5762	974.269910799768	0.029576801805
8	5782	977.933363324224	0.078825492133
8	5807	982.066396779048	0.144750790398

