version 2
run General-286-20240201-11:04:26-40057
attr configname General
attr datetime 20240201-11:04:26
attr experiment General
attr inifile main.ini
attr iterationvars "$0=1.2, $1=1.7, $2=70"
attr iterationvarsf 1.2,1.7,70-
attr measurement "$0=1.2, $1=1.7, $2=70"
attr network Rete
attr processid 40057
attr repetition 6
attr replication #6
attr resultdir results
attr runnumber 286
attr seedset 286
param Rete.lambda 1.2
param Rete.a 0.3s
param Rete.b 1.7s
param Rete.c 0.1s
param Rete.d 0.3s
param Rete.mu 3.0
param Rete.source2.interArrivalTime exponential(1s/lambda)
param Rete.source2.jobServiceTime exponential(1s/mu)
param Rete.source2.deadline uniform(a,b)
param Rete.server2.j 70
param Rete.server2.V uniform(c,d)

vector 0 Rete.passiveQueue queueLength:vector ETV
attr interpolationmode sample-hold
attr title "queue length, vector"
vector 1 Rete.sink lifeTime:vector ETV
attr interpolationmode none
attr title "lifetime of arrived jobs, vector"
attr unit s
vector 2 Rete.sink totalQueueingTime:vector ETV
attr interpolationmode none
attr title "the total time spent in queues by arrived jobs, vector"
attr unit s
vector 3 Rete.sink queuesVisited:vector ETV
attr interpolationmode none
attr title "the total number of queues visited by arrived jobs, vector"
vector 4 Rete.sink totalServiceTime:vector ETV
attr interpolationmode none
attr title "the total time spent  by arrived jobs, vector"
attr unit s
vector 5 Rete.sink totalDelayTime:vector ETV
attr interpolationmode none
attr title "the total time spent in delay nodes by arrived jobs, vector"
attr unit s
vector 6 Rete.sink delaysVisited:vector ETV
attr interpolationmode none
attr title "the total number of delays visited by arrived jobs, vector"
vector 7 Rete.sink generation:vector ETV
attr interpolationmode none
attr title "the generation of the arrived jobs, vector"
vector 8 Rete.passiveQueue queueingTime:vector ETV
attr interpolationmode none
attr title "queueing time at dequeue, vector"
attr unit s
0	0	0	0
0	55	8.488846549274	1
0	56	8.566462902052	0
0	75	11.355289102014	1
0	76	11.436341429812	0
0	90	12.130483630275	1
0	91	12.167940585496	0
0	95	12.178514405328	1
0	96	12.256599784871	0
0	165	28.897815907994	1
0	167	28.911204680124	2
0	169	28.921066573645	3
0	170	28.972969534769	2
0	173	29.061628734144	1
0	176	29.150287933519	0
0	180	29.187430677866	1
0	181	29.238947132894	0
0	352	61.347645621031	1
0	353	61.370152080105	0
0	386	67.658313668398	1
0	387	67.710259684129	0
0	401	69.200201063316	1
0	402	69.269203696078	0
0	456	73.524430736074	1
0	457	73.579158801408	0
0	531	83.165714330617	1
0	532	83.179430316743	0
0	541	87.49884002414	1
0	542	87.569459345858	0
0	666	109.724372065995	1
0	667	109.74659557571	0
0	671	109.771742685895	1
0	672	109.835254775085	0
0	703	115.179985505021	1
0	705	115.313152143743	2
0	706	115.362309930878	1
0	708	115.450969130253	0
0	717	115.946106480009	1
0	718	115.947080157165	0
0	777	125.06077801249	1
0	778	125.112930240237	0
0	842	136.62147514298	1
0	843	136.675947836271	0
0	887	146.651178133377	1
0	888	146.730596708835	0
0	922	149.904559133674	1
0	923	149.973639051391	0
0	952	152.514284721186	1
0	953	152.525842665433	0
0	1007	159.292536592042	1
0	1008	159.326686901248	0
0	1022	161.006355611986	1
0	1023	161.090697635232	0
0	1093	171.181361386029	1
0	1094	171.24220936464	0
0	1213	189.782022509435	1
0	1214	189.857118776524	0
0	1373	212.862124085733	1
0	1374	212.933035781137	0
0	1434	227.489611165	1
0	1435	227.540037578829	0
0	1554	249.627929805433	1
0	1555	249.652466015132	0
0	1604	260.371272577586	1
0	1605	260.429845302788	0
0	1609	260.442688001007	1
0	1610	260.518504502163	0
0	1669	273.006725231225	1
0	1671	273.038551297028	2
0	1672	273.049555894236	1
0	1675	273.138215093611	0
0	1709	280.140583964795	1
0	1710	280.189556469276	0
0	1790	295.486101182103	1
0	1791	295.534045155839	0
0	1955	328.359365154702	1
0	1956	328.363731245143	0
0	2035	337.862824796382	1
0	2036	337.945289936788	0
0	2080	345.050557454655	1
0	2081	345.126923970405	0
0	2085	345.165962134645	1
0	2086	345.21558316978	0
0	2107	346.731114411184	1
0	2108	346.936586091745	0
0	2111	346.99170518769	1
0	2112	347.02524529112	0
0	2146	349.978992826906	1
0	2147	349.988122771109	0
0	2166	352.881842360858	1
0	2167	352.898332103281	0
0	2236	363.605352471008	1
0	2237	363.631788572469	0
0	2261	368.453433317451	1
0	2262	368.47879605137	0
0	2376	384.532783311414	1
0	2377	384.538237779687	0
0	2401	390.393263291927	1
0	2402	390.39741058768	0
0	2426	393.875878792806	1
0	2427	393.931905139978	0
0	2587	423.23452916504	1
0	2588	423.299284836237	0
0	2722	438.741720714542	1
0	2723	438.797718574141	0
0	2809	451.061165918054	1
0	2811	451.112990160932	2
0	2812	451.255525157286	1
0	2814	451.344184356661	0
0	2908	464.877420390814	1
0	2909	464.959032151753	0
0	2913	464.968840482509	1
0	2914	465.047691351128	0
0	2933	467.717093436098	1
0	2934	467.767495034018	0
0	2948	471.792860860847	1
0	2949	471.840209397762	0
0	3103	506.922692488315	1
0	3104	506.944928094119	0
0	3113	508.229118473647	1
0	3114	508.244260685763	0
0	3153	514.181998717164	1
0	3154	514.256398967473	0
0	3194	523.48936147131	1
0	3195	523.48974710036	0
0	3204	524.041411897845	1
0	3205	524.120444411835	0
0	3269	532.928916103705	1
0	3270	532.940758232136	0
0	3319	541.164708192084	1
0	3320	541.238813433455	0
0	3489	570.227294839347	1
0	3490	570.261061010186	0
0	3515	573.919054699667	1
0	3516	573.982083391651	0
0	3590	584.043473439112	1
0	3591	584.093232492776	0
0	3620	586.633479987681	1
0	3621	586.66828956973	0
0	3645	590.921582411425	1
0	3646	590.922189258541	0
0	3660	597.669692938182	1
0	3661	597.745517269798	0
0	3700	602.164980720534	1
0	3701	602.173130553902	0
0	3705	602.252611408214	1
0	3706	602.261789753277	0
0	3715	602.665339674539	1
0	3716	602.68099617352	0
0	3740	606.980662203666	1
0	3741	607.028809855709	0
0	4071	659.742233508521	1
0	4072	659.828402455749	0
0	4257	691.542416073619	1
0	4258	691.579912077034	0
0	4262	691.595683622101	1
0	4263	691.668571276409	0
0	4292	694.160543124692	1
0	4294	694.198814238568	2
0	4295	694.208548818365	1
0	4298	694.29720801774	0
0	4377	715.798421591365	1
0	4378	715.874278252385	0
0	4382	715.929572147866	1
0	4383	715.96293745176	0
0	4447	734.832523502192	1
0	4448	734.86769064884	0
0	4467	739.407795397106	1
0	4468	739.414994043607	0
0	4497	741.677962636162	1
0	4498	741.745663520683	0
0	4517	742.44043172867	1
0	4518	742.508538299184	0
0	4562	750.460019852054	1
0	4564	750.469219677896	2
0	4567	750.750598551726	1
0	4569	750.839257751101	0
0	4618	756.784114857605	1
0	4619	756.871377813868	0
0	4648	766.396681509142	1
0	4649	766.477973027072	0
0	4663	767.078353199083	1
0	4664	767.113932813129	0
0	4678	769.478045761204	1
0	4679	769.486984025541	0
0	4758	780.794378572643	1
0	4759	780.806967810526	0
0	4833	794.361304029687	1
0	4834	794.437171701424	0
0	4873	799.994683690401	1
0	4874	800.001552271608	0
0	4994	818.189732047152	1
0	4995	818.260158804907	0
0	5014	820.958111164492	1
0	5015	821.042922734464	0
0	5049	829.634095244343	1
0	5050	829.646300024201	0
0	5069	832.449340983922	1
0	5070	832.516991689804	0
0	5124	845.962861889265	1
0	5125	845.964601149864	0
0	5144	848.640462614358	1
0	5145	848.674712312454	0
0	5149	848.733682098747	1
0	5150	848.763371511829	0
0	5159	848.988959630595	1
0	5160	849.040531430441	0
0	5224	859.73795352	1
0	5225	859.801735759348	0
0	5266	868.578987631306	1
0	5267	868.784151595734	0
0	5290	870.991468637685	1
0	5291	871.027142902727	0
0	5310	874.066591344141	1
0	5311	874.109432922432	0
0	5465	905.648055393529	1
0	5466	905.710043772087	0
0	5475	907.118680175994	1
0	5476	907.183830915006	0
0	5515	910.856374486863	1
0	5516	910.885581359558	0
0	5617	921.41265423732	1
0	5618	921.619831191767	0
0	5636	925.62526010046	1
0	5637	925.646562421104	0
0	5746	937.925993597161	1
0	5747	937.942942647777	0
0	5751	938.01459004129	1
0	5752	938.031601847152	0
0	5806	944.889824182732	1
0	5807	944.937282545766	0
0	5891	960.810406603565	1
0	5892	960.845016303289	0
0	5946	967.911870331619	1
0	5947	967.924712440295	0
0	5966	971.389948330413	1
0	5969	971.699621026474	0
0	5982	973.153315053874	1
0	5983	973.168054748924	0
0	6132	996.517678325568	1
0	6133	996.598548487648	0
1	5	0.219227365109	0.088659199375
1	10	0.666044874929	0.088659199375
1	15	0.982522373257	0.088659199375
1	20	1.284803869667	0.088659199375
1	25	2.722948818493	0.088659199375
1	30	4.388706465835	0.088659199375
1	35	4.762323417565	0.088659199375
1	40	5.187733581439	0.088659199375
1	45	5.465702320274	0.088659199375
1	50	5.614356701547	0.088659199375
1	57	8.566462902052	0.088659199375
1	60	8.655122101427	0.166275552153
1	65	8.801804747624	0.088659199375
1	70	11.146136858134	0.088659199375
1	77	11.436341429812	0.088659199375
1	80	11.525000629187	0.169711527173
1	85	11.918594828085	0.088659199375
1	92	12.167940585496	0.088659199375
1	97	12.256599784871	0.126116154596
1	100	12.345258984246	0.166744578918
1	105	13.080525148385	0.088659199375
1	110	15.203005993169	0.088659199375
1	115	17.581469752888	0.088659199375
1	120	19.192798182877	0.088659199375
1	125	21.312115458519	0.088659199375
1	130	21.696739575738	0.088659199375
1	135	22.305736928243	0.088659199375
1	140	23.070167288926	0.088659199375
1	145	23.395881972994	0.088659199375
1	150	24.282197044818	0.088659199375
1	155	24.839432487635	0.088659199375
1	160	26.482847868691	0.088659199375
1	171	28.972969534769	0.088659199375
1	174	29.061628734144	0.16381282615
1	177	29.150287933519	0.239083253395
1	182	29.238947132894	0.317880559249
1	185	29.327606332269	0.140175654403
1	190	29.751436972773	0.088659199375
1	195	31.037513582208	0.088659199375
1	200	31.660238024631	0.088659199375
1	205	32.15975911132	0.088659199375
1	210	33.652461146164	0.088659199375
1	215	34.935861278013	0.088659199375
1	220	35.282276138622	0.088659199375
1	225	35.422736653753	0.088659199375
1	230	35.95153588929	0.088659199375
1	235	37.405729646342	0.088659199375
1	240	38.354153822437	0.088659199375
1	245	40.287449976273	0.088659199375
1	250	40.3773076775	0.088659199375
1	255	40.63839716173	0.088659199375
1	260	42.232998790445	0.088659199375
1	265	42.398645241526	0.088659199375
1	270	43.064824651351	0.088659199375
1	275	48.417666539396	0.088659199375
1	280	49.518835815807	0.088659199375
1	285	51.061386794272	0.088659199375
1	290	55.706994154214	0.088659199375
1	295	55.802802457557	0.088659199375
1	300	56.437794852152	0.088659199375
1	305	56.53633866009	0.088659199375
1	310	56.676360678574	0.088659199375
1	315	57.655383637491	0.088659199375
1	320	57.770781686093	0.088659199375
1	325	58.328079456228	0.088659199375
1	330	58.7185491014	0.088659199375
1	335	58.926087005737	0.088659199375
1	340	59.177386564063	0.088659199375
1	345	59.719802315028	0.088659199375
1	350	61.10785686844	0.088659199375
1	356	61.45881127948	0.111165658449
1	361	62.734327584348	0.088659199375
1	366	62.998951498916	0.088659199375
1	371	64.336990571157	0.088659199375
1	376	65.09232865673	0.088659199375
1	381	67.085700390491	0.088659199375
1	388	67.710259684129	0.088659199375
1	391	67.798918883504	0.140605215106
1	396	69.131104534502	0.088659199375
1	403	69.269203696078	0.088659199375
1	406	69.357862895453	0.157661832137
1	411	70.289018725911	0.088659199375
1	416	70.393147724513	0.088659199375
1	421	70.744006649946	0.088659199375
1	426	71.154135013843	0.088659199375
1	431	71.880180032984	0.088659199375
1	436	72.276134079811	0.088659199375
1	441	72.929610015362	0.088659199375
1	446	73.223351583065	0.088659199375
1	451	73.337032671172	0.088659199375
1	458	73.579158801408	0.088659199375
1	461	73.667818000783	0.143387264709
1	466	74.361250325891	0.088659199375
1	471	75.422615625935	0.088659199375
1	476	76.904894059171	0.088659199375
1	481	77.33640268803	0.088659199375
1	486	78.139960595862	0.088659199375
1	491	78.546615069354	0.088659199375
1	496	78.936883927621	0.088659199375
1	501	79.14247500895	0.088659199375
1	506	79.658971315798	0.088659199375
1	511	79.907307218798	0.088659199375
1	516	80.506187037221	0.088659199375
1	521	80.910704597292	0.088659199375
1	526	82.58577526303	0.088659199375
1	533	83.179430316743	0.088659199375
1	536	83.268089516118	0.102375185501
1	543	87.569459345858	0.088659199375
1	546	87.658118545233	0.159278521093
1	551	89.056778933885	0.088659199375
1	556	89.191266455117	0.088659199375
1	561	89.939999316488	0.088659199375
1	566	91.140561809002	0.088659199375
1	571	91.311390546778	0.088659199375
1	576	93.556238250783	0.088659199375
1	581	93.901711085704	0.088659199375
1	586	94.185685697025	0.088659199375
1	591	95.096358447293	0.088659199375
1	596	96.738206541304	0.088659199375
1	601	97.681845888432	0.088659199375
1	606	99.644812626578	0.088659199375
1	611	101.327421309334	0.088659199375
1	616	101.60135412165	0.088659199375
1	621	102.751585672982	0.088659199375
1	626	103.091140279513	0.088659199375
1	631	103.835602521578	0.088659199375
1	636	104.247995592676	0.088659199375
1	641	105.271310503036	0.088659199375
1	646	105.510476513211	0.088659199375
1	651	107.338110296398	0.088659199375
1	656	107.492447623078	0.088659199375
1	661	109.024588126294	0.088659199375
1	668	109.74659557571	0.088659199375
1	673	109.835254775085	0.11088270909
1	676	109.92391397446	0.152171288565
1	681	110.132903648782	0.088659199375
1	686	110.333080017338	0.088659199375
1	691	110.558346103729	0.088659199375
1	696	112.341768914208	0.088659199375
1	701	115.100014719213	0.088659199375
1	709	115.450969130253	0.270983625232
1	712	115.539628329628	0.226476185885
1	719	115.947080157165	0.088659199375
1	722	116.03573935654	0.089632876531
1	727	117.456647067876	0.088659199375
1	732	118.894776340943	0.088659199375
1	737	119.298568488858	0.088659199375
1	742	121.122933417832	0.088659199375
1	747	121.318773878652	0.088659199375
1	752	121.741783489904	0.088659199375
1	757	122.46202018393	0.088659199375
1	762	122.570034085772	0.088659199375
1	767	124.239347848072	0.088659199375
1	772	124.537733839999	0.088659199375
1	779	125.112930240237	0.088659199375
1	782	125.201589439612	0.140811427122
1	787	126.195598846392	0.088659199375
1	792	130.050256176206	0.088659199375
1	797	130.910737667967	0.088659199375
1	802	131.820972285224	0.088659199375
1	807	132.078428881746	0.088659199375
1	812	132.276930955244	0.088659199375
1	817	132.370767795057	0.088659199375
1	822	134.535188721839	0.088659199375
1	827	134.948585016567	0.088659199375
1	832	135.064000103695	0.088659199375
1	837	136.275384142782	0.088659199375
1	844	136.675947836271	0.088659199375
1	847	136.764607035646	0.143131892666
1	852	137.286401738205	0.088659199375
1	857	137.417699078973	0.088659199375
1	862	141.002667294493	0.088659199375
1	867	143.503462899922	0.088659199375
1	872	143.70464087768	0.088659199375
1	877	144.270503953917	0.088659199375
1	882	145.769871815278	0.088659199375
1	889	146.730596708835	0.088659199375
1	892	146.81925590821	0.168077774833
1	897	148.279918062309	0.088659199375
1	902	148.411695613562	0.088659199375
1	907	148.755994427295	0.088659199375
1	912	149.720061385156	0.088659199375
1	917	149.872910874796	0.088659199375
1	924	149.973639051391	0.088659199375
1	927	150.062298250766	0.157739117092
1	932	150.413726774646	0.088659199375
1	937	150.992914366136	0.088659199375
1	942	151.495198532563	0.088659199375
1	947	152.342444738697	0.088659199375
1	954	152.525842665433	0.088659199375
1	957	152.614501864808	0.100217143622
1	962	153.279276606817	0.088659199375
1	967	154.180641775341	0.088659199375
1	972	154.661277999644	0.088659199375
1	977	154.998502107509	0.088659199375
1	982	155.854674429376	0.088659199375
1	987	156.639873864389	0.088659199375
1	992	157.505590642053	0.088659199375
1	997	158.427781964881	0.088659199375
1	1002	158.672557804308	0.088659199375
1	1009	159.326686901248	0.088659199375
1	1012	159.415346100623	0.122809508581
1	1017	160.416074989321	0.088659199375
1	1024	161.090697635232	0.088659199375
1	1027	161.179356834607	0.173001222621
1	1032	161.391220917691	0.088659199375
1	1037	162.368944586634	0.088659199375
1	1042	163.037357210691	0.088659199375
1	1047	163.721179951208	0.088659199375
1	1052	164.719458775734	0.088659199375
1	1058	165.22265924685	0.088659199375
1	1063	165.510745634617	0.088659199375
1	1068	166.184774241534	0.088659199375
1	1073	167.975695373055	0.088659199375
1	1078	168.714435330943	0.088659199375
1	1083	169.245568475088	0.088659199375
1	1088	169.859533814766	0.088659199375
1	1095	171.24220936464	0.088659199375
1	1098	171.330868564015	0.149507177986
1	1103	172.146671711126	0.088659199375
1	1108	175.646647296242	0.088659199375
1	1113	176.124946627751	0.088659199375
1	1118	176.242985973942	0.088659199375
1	1123	178.471271516663	0.088659199375
1	1128	178.767556821338	0.088659199375
1	1133	179.278406406978	0.088659199375
1	1138	179.544071473267	0.088659199375
1	1143	180.106416132111	0.088659199375
1	1148	180.375832851689	0.088659199375
1	1153	182.089281507865	0.088659199375
1	1158	182.485752396503	0.088659199375
1	1163	182.630348509563	0.088659199375
1	1168	182.793451650499	0.088659199375
1	1173	184.048634394916	0.088659199375
1	1178	184.289512517668	0.088659199375
1	1183	184.460974281076	0.088659199375
1	1188	184.946421517508	0.088659199375
1	1193	185.083037823787	0.088659199375
1	1198	186.229683504843	0.088659199375
1	1203	186.654511225218	0.088659199375
1	1208	189.235278926727	0.088659199375
1	1215	189.857118776524	0.088659199375
1	1218	189.945777975899	0.163755466464
1	1223	190.064080139683	0.088659199375
1	1228	190.687702381174	0.088659199375
1	1233	191.453710197027	0.088659199375
1	1238	192.186385933245	0.088659199375
1	1243	192.35434302519	0.088659199375
1	1248	193.769124875234	0.088659199375
1	1253	194.060215255146	0.088659199375
1	1258	194.518387133934	0.088659199375
1	1263	195.100950177899	0.088659199375
1	1268	195.863238832011	0.088659199375
1	1273	196.634694212386	0.088659199375
1	1278	198.566863017499	0.088659199375
1	1283	199.207571326298	0.088659199375
1	1288	199.379213165378	0.088659199375
1	1293	199.694209273888	0.088659199375
1	1298	200.06168482543	0.088659199375
1	1303	200.769236373306	0.088659199375
1	1308	201.823257037988	0.088659199375
1	1313	202.41979032123	0.088659199375
1	1318	202.912423061657	0.088659199375
1	1323	203.269062894202	0.088659199375
1	1328	204.084194054951	0.088659199375
1	1333	204.672563323464	0.088659199375
1	1338	204.80377746117	0.088659199375
1	1343	205.935326563786	0.088659199375
1	1348	208.014685698454	0.088659199375
1	1353	208.676712788324	0.088659199375
1	1358	210.349784014885	0.088659199375
1	1363	210.669664722172	0.088659199375
1	1368	211.253850779484	0.088659199375
1	1375	212.933035781137	0.088659199375
1	1378	213.021694980512	0.159570894779
1	1383	215.330123595578	0.088659199375
1	1388	215.595131987464	0.088659199375
1	1393	218.733323190685	0.088659199375
1	1398	219.279507852585	0.088659199375
1	1403	219.826304133882	0.088659199375
1	1409	221.836469619421	0.088659199375
1	1414	222.679015992707	0.088659199375
1	1419	223.136367454182	0.088659199375
1	1424	223.452281364896	0.088659199375
1	1429	226.55839211171	0.088659199375
1	1436	227.540037578829	0.088659199375
1	1439	227.628696778204	0.139085613204
1	1444	230.242313399203	0.088659199375
1	1449	230.78682867187	0.088659199375
1	1454	231.325559386029	0.088659199375
1	1459	232.457449053337	0.088659199375
1	1464	232.656818711997	0.088659199375
1	1469	235.956897712174	0.088659199375
1	1474	237.229910827332	0.088659199375
1	1479	238.340251753373	0.088659199375
1	1484	239.068850450761	0.088659199375
1	1489	241.784735466577	0.088659199375
1	1494	242.385507550942	0.088659199375
1	1499	242.814064207432	0.088659199375
1	1504	243.070960306506	0.088659199375
1	1509	243.318149874125	0.088659199375
1	1514	244.281127503979	0.088659199375
1	1519	244.560124613905	0.088659199375
1	1524	245.843188504591	0.088659199375
1	1529	246.108386575207	0.088659199375
1	1534	247.262897107259	0.088659199375
1	1539	247.825896819567	0.088659199375
1	1544	247.926209598006	0.088659199375
1	1549	248.855889067215	0.088659199375
1	1556	249.652466015132	0.088659199375
1	1559	249.741125214507	0.113195409074
1	1564	250.599997616182	0.088659199375
1	1569	252.408572819036	0.088659199375
1	1574	253.729467048523	0.088659199375
1	1579	255.742954361748	0.088659199375
1	1584	255.967444316789	0.088659199375
1	1589	257.34746094968	0.088659199375
1	1594	257.587815691763	0.088659199375
1	1599	260.015361268112	0.088659199375
1	1606	260.429845302788	0.088659199375
1	1611	260.518504502163	0.147231924577
1	1614	260.607163701538	0.164475700531
1	1619	260.932066202829	0.088659199375
1	1624	262.113318584112	0.088659199375
1	1629	262.893138857596	0.088659199375
1	1634	264.081027039374	0.088659199375
1	1639	264.359892394791	0.088659199375
1	1644	266.10279402884	0.088659199375
1	1649	266.86678674298	0.088659199375
1	1654	268.33392440061	0.088659199375
1	1659	269.681262873539	0.088659199375
1	1664	269.803748703344	0.088659199375
1	1673	273.049555894236	0.088659199375
1	1676	273.138215093611	0.131489862386
1	1679	273.226874292986	0.188322995958
1	1684	273.47630531939	0.088659199375
1	1689	275.296976049166	0.088659199375
1	1694	275.699396774996	0.088659199375
1	1699	276.094147640007	0.088659199375
1	1704	278.909728302618	0.088659199375
1	1711	280.189556469276	0.088659199375
1	1714	280.278215668651	0.137631703856
1	1719	281.151808313027	0.088659199375
1	1724	281.427025291691	0.088659199375
1	1729	282.725519055758	0.088659199375
1	1734	283.004033465659	0.088659199375
1	1739	284.457627090551	0.088659199375
1	1744	285.435483598157	0.088659199375
1	1749	285.97524482014	0.088659199375
1	1754	288.789130410558	0.088659199375
1	1760	289.936677488344	0.088659199375
1	1765	290.130741023672	0.088659199375
1	1770	290.458354212914	0.088659199375
1	1775	291.995931160019	0.088659199375
1	1780	293.881162166821	0.088659199375
1	1785	295.136776689185	0.088659199375
1	1792	295.534045155839	0.088659199375
1	1795	295.622704355214	0.136603173111
1	1800	296.215383542794	0.088659199375
1	1805	297.030184392857	0.088659199375
1	1810	297.910094520571	0.088659199375
1	1815	300.573649943136	0.088659199375
1	1820	302.882682786002	0.088659199375
1	1825	303.359751464243	0.088659199375
1	1830	303.722417610549	0.088659199375
1	1835	303.840059157209	0.088659199375
1	1840	304.297820543223	0.088659199375
1	1845	305.355470628963	0.088659199375
1	1850	308.050797458776	0.088659199375
1	1855	308.473614749471	0.088659199375
1	1860	308.591617166397	0.088659199375
1	1865	308.963693177345	0.088659199375
1	1870	309.743853494396	0.088659199375
1	1875	309.969071226561	0.088659199375
1	1880	310.899468505509	0.088659199375
1	1885	311.110055784598	0.088659199375
1	1890	311.486597870577	0.088659199375
1	1895	313.351942344749	0.088659199375
1	1900	313.992652531665	0.088659199375
1	1905	314.381343215305	0.088659199375
1	1910	315.089901840833	0.088659199375
1	1915	318.187087438903	0.088659199375
1	1920	318.994854468274	0.088659199375
1	1925	319.738429202925	0.088659199375
1	1930	323.011571222808	0.088659199375
1	1935	323.637760457095	0.088659199375
1	1940	327.097789466763	0.088659199375
1	1945	327.326152110003	0.088659199375
1	1950	328.20347564418	0.088659199375
1	1957	328.363731245143	0.088659199375
1	1960	328.452390444518	0.093025289816
1	1965	328.955305635545	0.088659199375
1	1970	329.251426335522	0.088659199375
1	1975	329.597818667726	0.088659199375
1	1980	329.832396822111	0.088659199375
1	1985	330.787214059638	0.088659199375
1	1990	330.967079189529	0.088659199375
1	1995	331.919696218581	0.088659199375
1	2000	333.772499552245	0.088659199375
1	2005	334.559933948908	0.088659199375
1	2010	335.055720774087	0.088659199375
1	2015	337.19198847965	0.088659199375
1	2020	337.37306706993	0.088659199375
1	2025	337.594222889854	0.088659199375
1	2030	337.785066194719	0.088659199375
1	2037	337.945289936788	0.088659199375
1	2040	338.033949136163	0.171124339781
1	2045	339.320345169	0.088659199375
1	2050	339.513283075052	0.088659199375
1	2055	340.167285379852	0.088659199375
1	2060	341.003925981042	0.088659199375
1	2065	341.525995372195	0.088659199375
1	2070	341.804952819868	0.088659199375
1	2075	341.94892813402	0.088659199375
1	2082	345.126923970405	0.088659199375
1	2087	345.21558316978	0.165025715125
1	2090	345.304242369155	0.13828023451
1	2095	345.932018025288	0.088659199375
1	2100	346.12058339055	0.088659199375
1	2105	346.67429088008	0.088659199375
1	2113	347.02524529112	0.294130879936
1	2116	347.113904490495	0.122199302805
1	2121	347.829114523195	0.088659199375
1	2126	348.009831114743	0.088659199375
1	2131	348.929829330244	0.088659199375
1	2136	349.414459138516	0.088659199375
1	2141	349.643603473898	0.088659199375
1	2148	349.988122771109	0.088659199375
1	2151	350.076781970484	0.097789143578
1	2156	350.862994815898	0.088659199375
1	2161	351.675327380892	0.088659199375
1	2168	352.898332103281	0.088659199375
1	2171	352.986991302656	0.105148941798
1	2176	353.25973195738	0.088659199375
1	2181	354.625451257209	0.088659199375
1	2186	356.075017832888	0.088659199375
1	2191	356.253036572242	0.088659199375
1	2196	356.575264213362	0.088659199375
1	2201	356.897656923887	0.088659199375
1	2206	357.612050706347	0.088659199375
1	2211	357.943984905769	0.088659199375
1	2216	359.794486651931	0.088659199375
1	2221	361.024669896197	0.088659199375
1	2226	361.290480699675	0.088659199375
1	2231	363.068130623217	0.088659199375
1	2238	363.631788572469	0.088659199375
1	2241	363.720447771844	0.115095300836
1	2246	364.158327999982	0.088659199375
1	2251	364.643002130075	0.088659199375
1	2256	366.065316073759	0.088659199375
1	2263	368.47879605137	0.088659199375
1	2266	368.567455250745	0.114021933294
1	2271	369.892871026393	0.088659199375
1	2276	370.487706379273	0.088659199375
1	2281	371.0905690899	0.088659199375
1	2286	371.244041602435	0.088659199375
1	2291	372.475909371629	0.088659199375
1	2296	374.780417430469	0.088659199375
1	2301	376.307367215904	0.088659199375
1	2306	377.294099409905	0.088659199375
1	2311	377.534896242836	0.088659199375
1	2316	377.753553825611	0.088659199375
1	2321	377.933639411043	0.088659199375
1	2326	378.545821017706	0.088659199375
1	2331	378.654273013442	0.088659199375
1	2336	378.831331897287	0.088659199375
1	2341	379.627000177166	0.088659199375
1	2346	379.861865451824	0.088659199375
1	2351	381.235269791132	0.088659199375
1	2356	381.341331523104	0.088659199375
1	2361	383.156657171469	0.088659199375
1	2366	383.761885826179	0.088659199375
1	2371	384.21074798242	0.088659199375
1	2378	384.538237779687	0.088659199375
1	2381	384.626896979062	0.094113667648
1	2386	385.021334652641	0.088659199375
1	2391	388.420849978805	0.088659199375
1	2396	390.238880427069	0.088659199375
1	2403	390.39741058768	0.088659199375
1	2406	390.486069787055	0.092806495128
1	2411	391.586506413743	0.088659199375
1	2416	392.36758834214	0.088659199375
1	2421	393.800096173782	0.088659199375
1	2428	393.931905139978	0.088659199375
1	2431	394.020564339353	0.144685546547
1	2436	395.135953825341	0.088659199375
1	2441	396.004812590482	0.088659199375
1	2446	396.292149738804	0.088659199375
1	2451	397.694335215184	0.088659199375
1	2456	399.131100797669	0.088659199375
1	2462	399.721139375695	0.088659199375
1	2467	402.520649385856	0.088659199375
1	2472	402.816772495475	0.088659199375
1	2477	403.071394105571	0.088659199375
1	2482	404.414787293607	0.088659199375
1	2487	405.500211662889	0.088659199375
1	2492	406.185745109296	0.088659199375
1	2497	407.922647421762	0.088659199375
1	2502	408.688508630298	0.088659199375
1	2507	408.810945682791	0.088659199375
1	2512	409.248977386258	0.088659199375
1	2517	410.649504010862	0.088659199375
1	2522	411.749690252361	0.088659199375
1	2527	411.897232620433	0.088659199375
1	2532	412.380471447199	0.088659199375
1	2537	413.212131041801	0.088659199375
1	2542	413.457951802284	0.088659199375
1	2547	413.79421525059	0.088659199375
1	2552	413.959708120287	0.088659199375
1	2557	415.429055849638	0.088659199375
1	2562	417.008491472385	0.088659199375
1	2567	419.669195693771	0.088659199375
1	2572	421.563621026403	0.088659199375
1	2577	422.240059725767	0.088659199375
1	2582	422.530676654843	0.088659199375
1	2589	423.299284836237	0.088659199375
1	2592	423.387944035612	0.153414870572
1	2597	423.845860017886	0.088659199375
1	2602	424.581764501948	0.088659199375
1	2607	427.181184493581	0.088659199375
1	2612	428.594136087811	0.088659199375
1	2617	428.722998774782	0.088659199375
1	2622	428.929637773821	0.088659199375
1	2627	429.152107104088	0.088659199375
1	2632	429.29519206691	0.088659199375
1	2637	430.368258669184	0.088659199375
1	2642	430.522134376393	0.088659199375
1	2647	431.308954675798	0.088659199375
1	2652	431.60584711532	0.088659199375
1	2657	432.38105585037	0.088659199375
1	2662	432.906179300942	0.088659199375
1	2667	433.014671930151	0.088659199375
1	2672	433.114435835183	0.088659199375
1	2677	435.280811464098	0.088659199375
1	2682	435.407532949805	0.088659199375
1	2687	436.115028597541	0.088659199375
1	2692	436.924343184797	0.088659199375
1	2697	437.024284178986	0.088659199375
1	2702	437.118393393741	0.088659199375
1	2707	437.455854844121	0.088659199375
1	2712	437.997522121136	0.088659199375
1	2717	438.100555052878	0.088659199375
1	2724	438.797718574141	0.088659199375
1	2727	438.886377773516	0.144657058974
1	2732	439.513069548027	0.088659199375
1	2737	439.799148296449	0.088659199375
1	2742	440.245324325971	0.088659199375
1	2747	440.356280228287	0.088659199375
1	2752	440.760398244916	0.088659199375
1	2757	441.499537490053	0.088659199375
1	2762	442.852692519505	0.088659199375
1	2767	443.440332328939	0.088659199375
1	2772	443.716811102632	0.088659199375
1	2777	445.098572454476	0.088659199375
1	2782	445.967733784432	0.088659199375
1	2787	446.655784580204	0.088659199375
1	2792	447.641674062943	0.088659199375
1	2797	449.028780487916	0.088659199375
1	2802	450.685332051876	0.088659199375
1	2807	450.993229945621	0.088659199375
1	2815	451.344184356661	0.283018438607
1	2818	451.432843556036	0.319853395104
1	2823	451.793466121838	0.088659199375
1	2828	452.137469182405	0.088659199375
1	2833	453.002127108653	0.088659199375
1	2838	453.262507910396	0.088659199375
1	2843	454.671754053888	0.088659199375
1	2848	455.238345427572	0.088659199375
1	2853	455.468953794826	0.088659199375
1	2858	458.036548521502	0.088659199375
1	2863	460.240647159115	0.088659199375
1	2868	460.596132424535	0.088659199375
1	2873	461.957837067351	0.088659199375
1	2878	462.897651679366	0.088659199375
1	2883	463.04066145658	0.088659199375
1	2888	463.269954089798	0.088659199375
1	2893	463.778184120673	0.088659199375
1	2898	463.900054009314	0.088659199375
1	2903	464.54801730203	0.088659199375
1	2910	464.959032151753	0.088659199375
1	2915	465.047691351128	0.170270960314
1	2918	465.136350550503	0.167510067994
1	2923	466.917972262798	0.088659199375
1	2928	467.254131549549	0.088659199375
1	2935	467.767495034018	0.088659199375
1	2938	467.856154233393	0.139060797295
1	2943	471.391756242133	0.088659199375
1	2950	471.840209397762	0.088659199375
1	2953	471.928868597137	0.13600773629
1	2958	473.384429791146	0.088659199375
1	2963	473.819957362989	0.088659199375
1	2968	475.778934888565	0.088659199375
1	2973	476.056206876853	0.088659199375
1	2978	477.184077948875	0.088659199375
1	2983	479.130129091497	0.088659199375
1	2988	479.804780748914	0.088659199375
1	2993	481.595209197211	0.088659199375
1	2998	484.913200521278	0.088659199375
1	3003	485.090949372451	0.088659199375
1	3008	486.899160929709	0.088659199375
1	3013	487.108477598874	0.088659199375
1	3018	487.875048794213	0.088659199375
1	3023	489.995863566298	0.088659199375
1	3028	491.046246578046	0.088659199375
1	3033	491.498953920829	0.088659199375
1	3038	492.648160894293	0.088659199375
1	3043	494.463207658607	0.088659199375
1	3048	496.75059396403	0.088659199375
1	3053	497.851266961801	0.088659199375
1	3058	498.114021637714	0.088659199375
1	3063	498.312241120506	0.088659199375
1	3068	498.475972434987	0.088659199375
1	3073	501.037338512957	0.088659199375
1	3078	503.698126346236	0.088659199375
1	3083	505.773404992989	0.088659199375
1	3088	505.985610365616	0.088659199375
1	3093	506.189009130879	0.088659199375
1	3098	506.701405174758	0.088659199375
1	3105	506.944928094119	0.088659199375
1	3108	507.033587293494	0.110894805179
1	3115	508.244260685763	0.088659199375
1	3118	508.332919885138	0.103801411491
1	3123	509.119639432124	0.088659199375
1	3128	509.227908593238	0.088659199375
1	3133	509.813451066907	0.088659199375
1	3138	511.743973391795	0.088659199375
1	3143	513.006014021028	0.088659199375
1	3148	513.098537541374	0.088659199375
1	3155	514.256398967473	0.088659199375
1	3158	514.345058166848	0.163059449684
1	3164	515.012576186538	0.088659199375
1	3169	515.794428468962	0.088659199375
1	3174	516.12277930322	0.088659199375
1	3179	516.828875857349	0.088659199375
1	3184	517.202536079944	0.088659199375
1	3189	523.172771731244	0.088659199375
1	3196	523.48974710036	0.088659199375
1	3199	523.578406299735	0.089044828425
1	3206	524.120444411835	0.088659199375
1	3209	524.20910361121	0.167691713365
1	3214	525.276817838617	0.088659199375
1	3219	525.647927307586	0.088659199375
1	3224	526.267338042476	0.088659199375
1	3229	526.420570859981	0.088659199375
1	3234	526.91172314972	0.088659199375
1	3239	528.880385293904	0.088659199375
1	3244	531.104453482635	0.088659199375
1	3249	531.902118377872	0.088659199375
1	3254	532.028829713877	0.088659199375
1	3259	532.643178037771	0.088659199375
1	3264	532.824120374808	0.088659199375
1	3271	532.940758232136	0.088659199375
1	3274	533.029417431511	0.100501327806
1	3279	533.548497193601	0.088659199375
1	3284	534.944847762212	0.088659199375
1	3289	535.850841021471	0.088659199375
1	3294	536.155844734635	0.088659199375
1	3299	536.734486725389	0.088659199375
1	3304	537.948281224241	0.088659199375
1	3309	538.516486072398	0.088659199375
1	3314	539.872163331792	0.088659199375
1	3321	541.238813433455	0.088659199375
1	3324	541.32747263283	0.162764440746
1	3329	542.704376056012	0.088659199375
1	3334	543.112240495906	0.088659199375
1	3339	544.843500246274	0.088659199375
1	3344	545.758195864562	0.088659199375
1	3349	546.233973550016	0.088659199375
1	3354	547.379556398757	0.088659199375
1	3359	548.12443117616	0.088659199375
1	3364	548.637217810007	0.088659199375
1	3369	549.852846924133	0.088659199375
1	3374	549.94558442215	0.088659199375
1	3379	550.391282236169	0.088659199375
1	3384	550.751743609914	0.088659199375
1	3389	551.132011959684	0.088659199375
1	3394	552.07785929554	0.088659199375
1	3399	552.17689317036	0.088659199375
1	3404	552.693290285869	0.088659199375
1	3409	555.006345675838	0.088659199375
1	3414	555.399317187195	0.088659199375
1	3419	555.98646220464	0.088659199375
1	3424	558.865146431415	0.088659199375
1	3429	559.258857487929	0.088659199375
1	3434	559.898851276615	0.088659199375
1	3439	560.3521568386	0.088659199375
1	3444	560.543596650236	0.088659199375
1	3449	560.943421565954	0.088659199375
1	3454	561.491624191245	0.088659199375
1	3459	562.104183471243	0.088659199375
1	3464	562.454544380469	0.088659199375
1	3469	563.866821612034	0.088659199375
1	3474	565.611455762336	0.088659199375
1	3479	567.978373432076	0.088659199375
1	3484	568.46940257338	0.088659199375
1	3491	570.261061010186	0.088659199375
1	3494	570.349720209561	0.122425370214
1	3499	570.914152121429	0.088659199375
1	3504	571.264781568021	0.088659199375
1	3509	573.05984605426	0.088659199375
1	3517	573.982083391651	0.088659199375
1	3520	574.070742591026	0.151687891359
1	3525	574.39139549332	0.088659199375
1	3530	575.100796747511	0.088659199375
1	3535	576.376873941591	0.088659199375
1	3540	576.754738999625	0.088659199375
1	3545	578.483501378814	0.088659199375
1	3550	578.666649681555	0.088659199375
1	3555	580.932750239808	0.088659199375
1	3560	581.753490739902	0.088659199375
1	3565	581.846805501981	0.088659199375
1	3570	582.17150746267	0.088659199375
1	3575	582.356290675231	0.088659199375
1	3580	582.671992054448	0.088659199375
1	3585	583.071386074281	0.088659199375
1	3592	584.093232492776	0.088659199375
1	3595	584.181891692151	0.138418253039
1	3600	584.60132442523	0.088659199375
1	3605	584.764679441196	0.088659199375
1	3610	586.173343177469	0.088659199375
1	3615	586.482366527338	0.088659199375
1	3622	586.66828956973	0.088659199375
1	3625	586.756948769105	0.123468781424
1	3630	586.931614869687	0.088659199375
1	3635	588.630588281486	0.088659199375
1	3640	588.970233580402	0.088659199375
1	3647	590.922189258541	0.088659199375
1	3650	591.010848457916	0.089266046491
1	3655	592.978973996482	0.088659199375
1	3662	597.745517269798	0.088659199375
1	3665	597.834176469173	0.164483530991
1	3670	598.224897822208	0.088659199375
1	3675	598.400319820011	0.088659199375
1	3680	600.822959275117	0.088659199375
1	3685	601.616692110163	0.088659199375
1	3690	601.832607261169	0.088659199375
1	3695	601.960041541307	0.088659199375
1	3702	602.173130553902	0.088659199375
1	3707	602.261789753277	0.096809032743
1	3710	602.350448952652	0.097837544438
1	3717	602.68099617352	0.088659199375
1	3720	602.769655372895	0.104315698356
1	3725	604.659699257604	0.088659199375
1	3730	606.082053316255	0.088659199375
1	3735	606.915620228337	0.088659199375
1	3742	607.028809855709	0.088659199375
1	3745	607.117469055084	0.136806851418
1	3750	608.089293096339	0.088659199375
1	3755	608.280245190525	0.088659199375
1	3760	608.373516057224	0.088659199375
1	3765	608.581685833976	0.088659199375
1	3770	609.301070615066	0.088659199375
1	3775	610.524771759787	0.088659199375
1	3780	610.704275711903	0.088659199375
1	3785	611.109292425629	0.088659199375
1	3790	613.70078961731	0.088659199375
1	3795	615.609335878531	0.088659199375
1	3800	615.8118368703	0.088659199375
1	3805	616.237527923247	0.088659199375
1	3810	616.472322169532	0.088659199375
1	3815	616.586371546966	0.088659199375
1	3820	617.529329999324	0.088659199375
1	3825	617.852526740097	0.088659199375
1	3830	618.55005796049	0.088659199375
1	3835	619.237966862182	0.088659199375
1	3840	621.070351707057	0.088659199375
1	3845	622.73244200345	0.088659199375
1	3850	623.035435334663	0.088659199375
1	3855	623.757784284825	0.088659199375
1	3860	624.2162212705	0.088659199375
1	3866	625.522840639801	0.088659199375
1	3871	625.810381203482	0.088659199375
1	3876	626.244293382677	0.088659199375
1	3881	626.449299063612	0.088659199375
1	3886	629.019472903949	0.088659199375
1	3891	629.396745874828	0.088659199375
1	3896	629.507506004517	0.088659199375
1	3901	630.560190984321	0.088659199375
1	3906	631.139102611855	0.088659199375
1	3911	631.448890211332	0.088659199375
1	3916	632.554609891096	0.088659199375
1	3921	632.865182133548	0.088659199375
1	3926	633.320148604969	0.088659199375
1	3931	633.424028145688	0.088659199375
1	3936	633.735192293058	0.088659199375
1	3941	634.542371311058	0.088659199375
1	3946	637.666355412585	0.088659199375
1	3951	639.405383212154	0.088659199375
1	3956	640.070680796238	0.088659199375
1	3961	640.474861778926	0.088659199375
1	3966	641.417723606383	0.088659199375
1	3971	642.615957441472	0.088659199375
1	3976	642.965864444194	0.088659199375
1	3981	643.105938239838	0.088659199375
1	3986	645.007342688099	0.088659199375
1	3991	645.587274985753	0.088659199375
1	3996	646.900738819061	0.088659199375
1	4001	647.048826022143	0.088659199375
1	4006	649.552274512922	0.088659199375
1	4011	650.792249661704	0.088659199375
1	4016	650.971358002195	0.088659199375
1	4021	651.844674966721	0.088659199375
1	4026	652.194258365919	0.088659199375
1	4031	652.412789908618	0.088659199375
1	4036	652.901600324246	0.088659199375
1	4041	653.131112231394	0.088659199375
1	4046	653.484281957625	0.088659199375
1	4051	653.866575081875	0.088659199375
1	4056	654.7825594675	0.088659199375
1	4061	657.996961009556	0.088659199375
1	4066	659.647379926521	0.088659199375
1	4073	659.828402455749	0.088659199375
1	4076	659.917061655124	0.174828146603
1	4081	660.359192657586	0.088659199375
1	4086	662.007703680778	0.088659199375
1	4091	662.778790636346	0.088659199375
1	4096	664.569834501097	0.088659199375
1	4101	664.790012631612	0.088659199375
1	4106	665.926161069927	0.088659199375
1	4111	666.6931347611	0.088659199375
1	4116	667.294198223474	0.088659199375
1	4121	667.678934748621	0.088659199375
1	4126	667.824446408183	0.088659199375
1	4131	668.573488768488	0.088659199375
1	4136	669.192558928506	0.088659199375
1	4141	669.999846488906	0.088659199375
1	4146	672.079010363285	0.088659199375
1	4151	672.638979500187	0.088659199375
1	4156	672.993815435591	0.088659199375
1	4161	673.389189981337	0.088659199375
1	4166	674.156878660934	0.088659199375
1	4171	675.201610056321	0.088659199375
1	4176	676.322644849263	0.088659199375
1	4181	680.628345792273	0.088659199375
1	4186	680.867746692561	0.088659199375
1	4191	681.466386450571	0.088659199375
1	4196	683.307688460762	0.088659199375
1	4201	684.286952625062	0.088659199375
1	4206	685.427679247808	0.088659199375
1	4211	685.922855474404	0.088659199375
1	4217	687.253872488115	0.088659199375
1	4222	687.784262430175	0.088659199375
1	4227	688.332893352206	0.088659199375
1	4232	689.401711241034	0.088659199375
1	4237	690.17811749521	0.088659199375
1	4242	690.534069617202	0.088659199375
1	4247	690.639194498596	0.088659199375
1	4252	690.784736459996	0.088659199375
1	4259	691.579912077034	0.088659199375
1	4264	691.668571276409	0.12615520279
1	4267	691.757230475784	0.161546853683
1	4272	692.23134654253	0.088659199375
1	4277	692.700623306703	0.088659199375
1	4282	693.492845842575	0.088659199375
1	4287	693.740120330481	0.088659199375
1	4296	694.208548818365	0.088659199375
1	4299	694.29720801774	0.136664893048
1	4302	694.385867217115	0.187052978547
1	4307	694.608298544106	0.088659199375
1	4312	694.785834178746	0.088659199375
1	4317	697.327683163507	0.088659199375
1	4322	700.188330736982	0.088659199375
1	4327	700.673058872653	0.088659199375
1	4332	701.796193187568	0.088659199375
1	4337	702.310088440421	0.088659199375
1	4342	705.812998183419	0.088659199375
1	4347	706.249882759136	0.088659199375
1	4352	707.012301420884	0.088659199375
1	4357	707.774166739853	0.088659199375
1	4362	711.693654258854	0.088659199375
1	4367	711.825408420633	0.088659199375
1	4372	715.72985898916	0.088659199375
1	4379	715.874278252385	0.088659199375
1	4384	715.96293745176	0.164515860395
1	4387	716.051596651135	0.122024503269
1	4392	717.323877552356	0.088659199375
1	4397	718.903647619332	0.088659199375
1	4402	721.590245962158	0.088659199375
1	4407	722.502070376998	0.088659199375
1	4412	723.681761432166	0.088659199375
1	4417	723.851663562531	0.088659199375
1	4422	725.233345257892	0.088659199375
1	4427	726.495017750308	0.088659199375
1	4432	727.22847237634	0.088659199375
1	4437	728.004785346571	0.088659199375
1	4442	728.8251791288	0.088659199375
1	4449	734.86769064884	0.088659199375
1	4452	734.956349848215	0.123826346023
1	4457	737.073220944779	0.088659199375
1	4462	738.366614813475	0.088659199375
1	4469	739.414994043607	0.088659199375
1	4472	739.503653242982	0.095857845876
1	4477	739.611499803127	0.088659199375
1	4482	739.968608557658	0.088659199375
1	4487	740.614629905075	0.088659199375
1	4492	740.820996467863	0.088659199375
1	4499	741.745663520683	0.088659199375
1	4502	741.834322720058	0.156360083896
1	4507	741.926153556132	0.088659199375
1	4512	742.158513364601	0.088659199375
1	4519	742.508538299184	0.088659199375
1	4522	742.597197498559	0.156765769889
1	4527	743.419713306078	0.088659199375
1	4532	745.330024145177	0.088659199375
1	4537	745.737225682992	0.088659199375
1	4542	747.195618053248	0.088659199375
1	4547	748.226048380565	0.088659199375
1	4552	749.725577856867	0.088659199375
1	4557	749.92143434175	0.088659199375
1	4566	750.488303340061	0.088659199375
1	4570	750.839257751101	0.379237899047
1	4573	750.927916950476	0.45869727258
1	4578	751.130690118851	0.088659199375
1	4583	751.639560194089	0.088659199375
1	4588	752.03729838732	0.088659199375
1	4593	753.046033632954	0.088659199375
1	4598	753.583587583635	0.088659199375
1	4603	754.139532640321	0.088659199375
1	4608	754.845062819737	0.088659199375
1	4613	755.583171077087	0.088659199375
1	4620	756.871377813868	0.088659199375
1	4623	756.960037013243	0.175922155638
1	4628	757.448886802333	0.088659199375
1	4633	759.011270004575	0.088659199375
1	4638	761.53278793865	0.088659199375
1	4643	763.748632892265	0.088659199375
1	4650	766.477973027072	0.088659199375
1	4653	766.566632226447	0.169950717305
1	4658	766.70004639385	0.088659199375
1	4665	767.113932813129	0.088659199375
1	4668	767.202592012504	0.124238813421
1	4673	768.539153465367	0.088659199375
1	4680	769.486984025541	0.088659199375
1	4683	769.575643224916	0.097597463712
1	4688	769.906589387579	0.088659199375
1	4693	770.749185286925	0.088659199375
1	4698	771.455169994188	0.088659199375
1	4703	771.857581058869	0.088659199375
1	4708	772.082723225489	0.088659199375
1	4713	772.349862311046	0.088659199375
1	4718	772.488862283584	0.088659199375
1	4723	773.276234422819	0.088659199375
1	4728	774.084460066761	0.088659199375
1	4733	776.419475057278	0.088659199375
1	4738	776.985670993041	0.088659199375
1	4743	777.741763298118	0.088659199375
1	4748	778.242493814973	0.088659199375
1	4753	779.86059117567	0.088659199375
1	4760	780.806967810526	0.088659199375
1	4763	780.895627009901	0.101248437258
1	4768	781.080625357583	0.088659199375
1	4773	781.558398896366	0.088659199375
1	4778	782.468691051118	0.088659199375
1	4783	784.566432056858	0.088659199375
1	4788	785.099433658114	0.088659199375
1	4793	785.499319305129	0.088659199375
1	4798	785.910437408194	0.088659199375
1	4803	786.468766780205	0.088659199375
1	4808	787.502865313709	0.088659199375
1	4813	788.537398775395	0.088659199375
1	4818	789.297506791657	0.088659199375
1	4823	789.477059274249	0.088659199375
1	4828	793.041090624257	0.088659199375
1	4835	794.437171701424	0.088659199375
1	4838	794.525830900799	0.164526871112
1	4843	796.003713664731	0.088659199375
1	4848	796.300450232968	0.088659199375
1	4853	797.133204824097	0.088659199375
1	4858	798.427921192961	0.088659199375
1	4863	798.723403727532	0.088659199375
1	4868	799.055793424793	0.088659199375
1	4875	800.001552271608	0.088659199375
1	4878	800.090211470983	0.095527780582
1	4883	800.237581478125	0.088659199375
1	4888	800.937273380638	0.088659199375
1	4893	801.909789692345	0.088659199375
1	4898	802.132009305458	0.088659199375
1	4903	802.509017957846	0.088659199375
1	4908	804.246813489327	0.088659199375
1	4913	806.983231715756	0.088659199375
1	4919	807.501512503616	0.088659199375
1	4924	807.596354373531	0.088659199375
1	4929	808.781857438689	0.088659199375
1	4934	809.692534492815	0.088659199375
1	4939	809.793416225784	0.088659199375
1	4944	810.596233910551	0.088659199375
1	4949	811.357863751925	0.088659199375
1	4954	811.812137328995	0.088659199375
1	4959	812.241423502158	0.088659199375
1	4964	812.408272978071	0.088659199375
1	4969	813.532201503015	0.088659199375
1	4974	815.491977690161	0.088659199375
1	4979	815.770979756476	0.088659199375
1	4984	816.650804317705	0.088659199375
1	4989	817.470096673733	0.088659199375
1	4996	818.260158804907	0.088659199375
1	4999	818.348818004282	0.15908595713
1	5004	818.56304803905	0.088659199375
1	5009	819.125154425034	0.088659199375
1	5016	821.042922734464	0.088659199375
1	5019	821.131581933839	0.173470769347
1	5024	822.11049225633	0.088659199375
1	5029	822.693877124596	0.088659199375
1	5034	823.905604563123	0.088659199375
1	5039	825.004170450316	0.088659199375
1	5044	826.277345068715	0.088659199375
1	5051	829.646300024201	0.088659199375
1	5054	829.734959223576	0.100863979233
1	5059	830.773415650366	0.088659199375
1	5064	831.607878049839	0.088659199375
1	5071	832.516991689804	0.088659199375
1	5074	832.605650889179	0.156309905257
1	5079	833.750561461304	0.088659199375
1	5084	837.289398938377	0.088659199375
1	5089	840.159515513719	0.088659199375
1	5094	841.186142724178	0.088659199375
1	5099	842.975935291069	0.088659199375
1	5104	843.270387012481	0.088659199375
1	5109	844.5205483663	0.088659199375
1	5114	845.169792150998	0.088659199375
1	5119	845.66293710575	0.088659199375
1	5126	845.964601149864	0.088659199375
1	5129	846.053260349239	0.090398459974
1	5134	847.110468502806	0.088659199375
1	5139	848.415454618113	0.088659199375
1	5146	848.674712312454	0.088659199375
1	5151	848.763371511829	0.122908897471
1	5154	848.852030711204	0.118348612457
1	5161	849.040531430441	0.088659199375
1	5164	849.129190629816	0.140230999221
1	5169	850.859920883927	0.088659199375
1	5174	851.736455409736	0.088659199375
1	5179	852.802828855532	0.088659199375
1	5184	854.316789076306	0.088659199375
1	5189	854.760379256665	0.088659199375
1	5194	854.931740413947	0.088659199375
1	5199	855.674964748749	0.088659199375
1	5204	855.955278203769	0.088659199375
1	5209	856.725601527092	0.088659199375
1	5214	857.01695169483	0.088659199375
1	5219	858.677612517726	0.088659199375
1	5226	859.801735759348	0.088659199375
1	5229	859.890394958723	0.152441438723
1	5234	860.902585232121	0.088659199375
1	5239	861.421514420232	0.088659199375
1	5244	863.851938771417	0.088659199375
1	5249	866.113403457498	0.088659199375
1	5254	866.380277985272	0.088659199375
1	5259	868.361758851699	0.088659199375
1	5264	868.521856384069	0.088659199375
1	5270	868.872810795109	0.293823163803
1	5275	870.259864837096	0.088659199375
1	5280	870.385880148599	0.088659199375
1	5285	870.88892693077	0.088659199375
1	5292	871.027142902727	0.088659199375
1	5295	871.115802102102	0.124333464417
1	5300	871.236780460202	0.088659199375
1	5305	873.000398616485	0.088659199375
1	5312	874.109432922432	0.088659199375
1	5315	874.198092121807	0.131500777666
1	5320	874.436127853155	0.088659199375
1	5325	874.942676085134	0.088659199375
1	5330	876.601323326593	0.088659199375
1	5335	876.928762250395	0.088659199375
1	5340	877.544661932546	0.088659199375
1	5345	879.626736854218	0.088659199375
1	5350	881.593534628014	0.088659199375
1	5355	881.70750003361	0.088659199375
1	5360	882.104158030794	0.088659199375
1	5365	882.384857273298	0.088659199375
1	5370	883.112037941849	0.088659199375
1	5375	883.455447174613	0.088659199375
1	5380	884.181998357547	0.088659199375
1	5385	884.499288563276	0.088659199375
1	5390	886.271807990779	0.088659199375
1	5395	886.973733972791	0.088659199375
1	5400	887.583051453364	0.088659199375
1	5405	888.124678559288	0.088659199375
1	5410	889.086275701532	0.088659199375
1	5415	889.912652259154	0.088659199375
1	5420	890.090114778866	0.088659199375
1	5425	890.505301593509	0.088659199375
1	5430	895.357258266083	0.088659199375
1	5435	895.525533912293	0.088659199375
1	5440	895.643723003775	0.088659199375
1	5445	897.432937813086	0.088659199375
1	5450	898.482132642169	0.088659199375
1	5455	900.839895585566	0.088659199375
1	5460	902.167103791242	0.088659199375
1	5467	905.710043772087	0.088659199375
1	5470	905.798702971462	0.150647577933
1	5477	907.183830915006	0.088659199375
1	5480	907.272490114381	0.153809938387
1	5485	907.505267261061	0.088659199375
1	5490	909.021302119837	0.088659199375
1	5495	909.336589100925	0.088659199375
1	5500	909.44105936507	0.088659199375
1	5505	910.168944999772	0.088659199375
1	5510	910.711661178823	0.088659199375
1	5517	910.885581359558	0.088659199375
1	5520	910.974240558933	0.11786607207
1	5525	911.3566821694	0.088659199375
1	5530	911.778719529083	0.088659199375
1	5535	912.696824347171	0.088659199375
1	5540	913.925292287488	0.088659199375
1	5545	914.492482566262	0.088659199375
1	5550	914.659117943352	0.088659199375
1	5555	915.815895266359	0.088659199375
1	5560	916.48855901503	0.088659199375
1	5565	916.930057048293	0.088659199375
1	5570	918.04928166357	0.088659199375
1	5575	918.139970442814	0.088659199375
1	5580	918.82377241427	0.088659199375
1	5585	919.586764011853	0.088659199375
1	5590	919.705664182357	0.088659199375
1	5595	919.910994272845	0.088659199375
1	5600	920.758747908336	0.088659199375
1	5605	920.85084567463	0.088659199375
1	5610	921.0689964942	0.088659199375
1	5615	921.357535980102	0.088659199375
1	5621	921.708490391142	0.295836153822
1	5626	922.574490372339	0.088659199375
1	5631	923.82639104416	0.088659199375
1	5638	925.646562421104	0.088659199375
1	5641	925.735221620479	0.109961520019
1	5646	926.134722138535	0.088659199375
1	5651	926.559640382843	0.088659199375
1	5656	927.342550038332	0.088659199375
1	5661	927.507352562269	0.088659199375
1	5666	927.97739009551	0.088659199375
1	5671	928.594913978034	0.088659199375
1	5676	929.264840367275	0.088659199375
1	5681	930.932966813442	0.088659199375
1	5686	931.680667420969	0.088659199375
1	5691	931.819714438816	0.088659199375
1	5696	932.646713240741	0.088659199375
1	5701	933.532034676728	0.088659199375
1	5706	934.750716928898	0.088659199375
1	5711	934.908648990614	0.088659199375
1	5716	935.348407505249	0.088659199375
1	5721	935.538678092504	0.088659199375
1	5726	936.106452611947	0.088659199375
1	5731	936.480227893585	0.088659199375
1	5736	937.089730539207	0.088659199375
1	5741	937.311881295709	0.088659199375
1	5748	937.942942647777	0.088659199375
1	5753	938.031601847152	0.105608249991
1	5756	938.120261046527	0.105671005237
1	5761	938.730858322186	0.088659199375
1	5766	939.061044355381	0.088659199375
1	5771	940.636446178416	0.088659199375
1	5776	941.712126787729	0.088659199375
1	5781	943.257869118855	0.088659199375
1	5786	943.809932229445	0.088659199375
1	5791	944.008744452635	0.088659199375
1	5796	944.180329235393	0.088659199375
1	5801	944.72922054628	0.088659199375
1	5808	944.937282545766	0.088659199375
1	5811	945.025941745141	0.136117562409
1	5816	945.913762654574	0.088659199375
1	5821	948.331543219668	0.088659199375
1	5826	948.737653981208	0.088659199375
1	5831	949.770735900721	0.088659199375
1	5836	950.23984576192	0.088659199375
1	5841	951.252089604543	0.088659199375
1	5846	951.708284240627	0.088659199375
1	5851	953.0116051443	0.088659199375
1	5856	954.066021905554	0.088659199375
1	5861	955.593797843201	0.088659199375
1	5866	956.374954046461	0.088659199375
1	5871	957.866916893157	0.088659199375
1	5876	957.989912743468	0.088659199375
1	5881	959.682305515269	0.088659199375
1	5886	960.10063713034	0.088659199375
1	5893	960.845016303289	0.088659199375
1	5896	960.933675502664	0.123268899099
1	5901	961.998357200314	0.088659199375
1	5906	962.875142774442	0.088659199375
1	5911	963.411295192784	0.088659199375
1	5916	963.968497398266	0.088659199375
1	5921	964.687507718447	0.088659199375
1	5926	965.139777201088	0.088659199375
1	5931	965.487498531965	0.088659199375
1	5936	965.621920162108	0.088659199375
1	5941	966.3318611112	0.088659199375
1	5948	967.924712440295	0.088659199375
1	5951	968.01337163967	0.101501308051
1	5956	969.654020264875	0.088659199375
1	5961	969.995038535762	0.088659199375
1	5968	971.437325814809	0.088659199375
1	5972	971.788280225849	0.398331895436
1	5977	972.374500005716	0.088659199375
1	5984	973.168054748924	0.088659199375
1	5987	973.256713948299	0.103398894425
1	5992	974.673041649441	0.088659199375
1	5997	976.830601127729	0.088659199375
1	6002	976.920217187272	0.088659199375
1	6007	977.232497131618	0.088659199375
1	6012	977.845048201802	0.088659199375
1	6017	979.063464849724	0.088659199375
1	6022	980.253860761618	0.088659199375
1	6027	980.741292424996	0.088659199375
1	6032	980.832253886137	0.088659199375
1	6037	982.493463420962	0.088659199375
1	6042	982.632442337416	0.088659199375
1	6047	982.791264037968	0.088659199375
1	6052	983.123383936404	0.088659199375
1	6057	984.868706184493	0.088659199375
1	6062	985.357617813884	0.088659199375
1	6067	986.195188794221	0.088659199375
1	6072	986.713978467717	0.088659199375
1	6077	987.827286651035	0.088659199375
1	6082	989.423547013491	0.088659199375
1	6087	991.366470915149	0.088659199375
1	6092	992.736803344051	0.088659199375
1	6097	992.888857388911	0.088659199375
1	6102	993.395934566317	0.088659199375
1	6107	993.656019202877	0.088659199375
1	6112	993.804522450112	0.088659199375
1	6117	993.958953404579	0.088659199375
1	6122	994.230384012973	0.088659199375
1	6127	995.741318948009	0.088659199375
1	6134	996.598548487648	0.088659199375
1	6137	996.687207687023	0.169529361455
1	6142	998.304256766759	0.088659199375
1	6147	998.69625097265	0.088659199375
1	6152	999.22370020992	0.088659199375
2	5	0.219227365109	0
2	10	0.666044874929	0
2	15	0.982522373257	0
2	20	1.284803869667	0
2	25	2.722948818493	0
2	30	4.388706465835	0
2	35	4.762323417565	0
2	40	5.187733581439	0
2	45	5.465702320274	0
2	50	5.614356701547	0
2	57	8.566462902052	0
2	60	8.655122101427	0.077616352778
2	65	8.801804747624	0
2	70	11.146136858134	0
2	77	11.436341429812	0
2	80	11.525000629187	0.081052327798
2	85	11.918594828085	0
2	92	12.167940585496	0
2	97	12.256599784871	0.037456955221
2	100	12.345258984246	0.078085379543
2	105	13.080525148385	0
2	110	15.203005993169	0
2	115	17.581469752888	0
2	120	19.192798182877	0
2	125	21.312115458519	0
2	130	21.696739575738	0
2	135	22.305736928243	0
2	140	23.070167288926	0
2	145	23.395881972994	0
2	150	24.282197044818	0
2	155	24.839432487635	0
2	160	26.482847868691	0
2	171	28.972969534769	0
2	174	29.061628734144	0.075153626775
2	177	29.150287933519	0.15042405402
2	182	29.238947132894	0.229221359874
2	185	29.327606332269	0.051516455028
2	190	29.751436972773	0
2	195	31.037513582208	0
2	200	31.660238024631	0
2	205	32.15975911132	0
2	210	33.652461146164	0
2	215	34.935861278013	0
2	220	35.282276138622	0
2	225	35.422736653753	0
2	230	35.95153588929	0
2	235	37.405729646342	0
2	240	38.354153822437	0
2	245	40.287449976273	0
2	250	40.3773076775	0
2	255	40.63839716173	0
2	260	42.232998790445	0
2	265	42.398645241526	0
2	270	43.064824651351	0
2	275	48.417666539396	0
2	280	49.518835815807	0
2	285	51.061386794272	0
2	290	55.706994154214	0
2	295	55.802802457557	0
2	300	56.437794852152	0
2	305	56.53633866009	0
2	310	56.676360678574	0
2	315	57.655383637491	0
2	320	57.770781686093	0
2	325	58.328079456228	0
2	330	58.7185491014	0
2	335	58.926087005737	0
2	340	59.177386564063	0
2	345	59.719802315028	0
2	350	61.10785686844	0
2	356	61.45881127948	0.022506459074
2	361	62.734327584348	0
2	366	62.998951498916	0
2	371	64.336990571157	0
2	376	65.09232865673	0
2	381	67.085700390491	0
2	388	67.710259684129	0
2	391	67.798918883504	0.051946015731
2	396	69.131104534502	0
2	403	69.269203696078	0
2	406	69.357862895453	0.069002632762
2	411	70.289018725911	0
2	416	70.393147724513	0
2	421	70.744006649946	0
2	426	71.154135013843	0
2	431	71.880180032984	0
2	436	72.276134079811	0
2	441	72.929610015362	0
2	446	73.223351583065	0
2	451	73.337032671172	0
2	458	73.579158801408	0
2	461	73.667818000783	0.054728065334
2	466	74.361250325891	0
2	471	75.422615625935	0
2	476	76.904894059171	0
2	481	77.33640268803	0
2	486	78.139960595862	0
2	491	78.546615069354	0
2	496	78.936883927621	0
2	501	79.14247500895	0
2	506	79.658971315798	0
2	511	79.907307218798	0
2	516	80.506187037221	0
2	521	80.910704597292	0
2	526	82.58577526303	0
2	533	83.179430316743	0
2	536	83.268089516118	0.013715986126
2	543	87.569459345858	0
2	546	87.658118545233	0.070619321718
2	551	89.056778933885	0
2	556	89.191266455117	0
2	561	89.939999316488	0
2	566	91.140561809002	0
2	571	91.311390546778	0
2	576	93.556238250783	0
2	581	93.901711085704	0
2	586	94.185685697025	0
2	591	95.096358447293	0
2	596	96.738206541304	0
2	601	97.681845888432	0
2	606	99.644812626578	0
2	611	101.327421309334	0
2	616	101.60135412165	0
2	621	102.751585672982	0
2	626	103.091140279513	0
2	631	103.835602521578	0
2	636	104.247995592676	0
2	641	105.271310503036	0
2	646	105.510476513211	0
2	651	107.338110296398	0
2	656	107.492447623078	0
2	661	109.024588126294	0
2	668	109.74659557571	0
2	673	109.835254775085	0.022223509715
2	676	109.92391397446	0.06351208919
2	681	110.132903648782	0
2	686	110.333080017338	0
2	691	110.558346103729	0
2	696	112.341768914208	0
2	701	115.100014719213	0
2	709	115.450969130253	0.182324425857
2	712	115.539628329628	0.13781698651
2	719	115.947080157165	0
2	722	116.03573935654	0.000973677156
2	727	117.456647067876	0
2	732	118.894776340943	0
2	737	119.298568488858	0
2	742	121.122933417832	0
2	747	121.318773878652	0
2	752	121.741783489904	0
2	757	122.46202018393	0
2	762	122.570034085772	0
2	767	124.239347848072	0
2	772	124.537733839999	0
2	779	125.112930240237	0
2	782	125.201589439612	0.052152227747
2	787	126.195598846392	0
2	792	130.050256176206	0
2	797	130.910737667967	0
2	802	131.820972285224	0
2	807	132.078428881746	0
2	812	132.276930955244	0
2	817	132.370767795057	0
2	822	134.535188721839	0
2	827	134.948585016567	0
2	832	135.064000103695	0
2	837	136.275384142782	0
2	844	136.675947836271	0
2	847	136.764607035646	0.054472693291
2	852	137.286401738205	0
2	857	137.417699078973	0
2	862	141.002667294493	0
2	867	143.503462899922	0
2	872	143.70464087768	0
2	877	144.270503953917	0
2	882	145.769871815278	0
2	889	146.730596708835	0
2	892	146.81925590821	0.079418575458
2	897	148.279918062309	0
2	902	148.411695613562	0
2	907	148.755994427295	0
2	912	149.720061385156	0
2	917	149.872910874796	0
2	924	149.973639051391	0
2	927	150.062298250766	0.069079917717
2	932	150.413726774646	0
2	937	150.992914366136	0
2	942	151.495198532563	0
2	947	152.342444738697	0
2	954	152.525842665433	0
2	957	152.614501864808	0.011557944247
2	962	153.279276606817	0
2	967	154.180641775341	0
2	972	154.661277999644	0
2	977	154.998502107509	0
2	982	155.854674429376	0
2	987	156.639873864389	0
2	992	157.505590642053	0
2	997	158.427781964881	0
2	1002	158.672557804308	0
2	1009	159.326686901248	0
2	1012	159.415346100623	0.034150309206
2	1017	160.416074989321	0
2	1024	161.090697635232	0
2	1027	161.179356834607	0.084342023246
2	1032	161.391220917691	0
2	1037	162.368944586634	0
2	1042	163.037357210691	0
2	1047	163.721179951208	0
2	1052	164.719458775734	0
2	1058	165.22265924685	0
2	1063	165.510745634617	0
2	1068	166.184774241534	0
2	1073	167.975695373055	0
2	1078	168.714435330943	0
2	1083	169.245568475088	0
2	1088	169.859533814766	0
2	1095	171.24220936464	0
2	1098	171.330868564015	0.060847978611
2	1103	172.146671711126	0
2	1108	175.646647296242	0
2	1113	176.124946627751	0
2	1118	176.242985973942	0
2	1123	178.471271516663	0
2	1128	178.767556821338	0
2	1133	179.278406406978	0
2	1138	179.544071473267	0
2	1143	180.106416132111	0
2	1148	180.375832851689	0
2	1153	182.089281507865	0
2	1158	182.485752396503	0
2	1163	182.630348509563	0
2	1168	182.793451650499	0
2	1173	184.048634394916	0
2	1178	184.289512517668	0
2	1183	184.460974281076	0
2	1188	184.946421517508	0
2	1193	185.083037823787	0
2	1198	186.229683504843	0
2	1203	186.654511225218	0
2	1208	189.235278926727	0
2	1215	189.857118776524	0
2	1218	189.945777975899	0.075096267089
2	1223	190.064080139683	0
2	1228	190.687702381174	0
2	1233	191.453710197027	0
2	1238	192.186385933245	0
2	1243	192.35434302519	0
2	1248	193.769124875234	0
2	1253	194.060215255146	0
2	1258	194.518387133934	0
2	1263	195.100950177899	0
2	1268	195.863238832011	0
2	1273	196.634694212386	0
2	1278	198.566863017499	0
2	1283	199.207571326298	0
2	1288	199.379213165378	0
2	1293	199.694209273888	0
2	1298	200.06168482543	0
2	1303	200.769236373306	0
2	1308	201.823257037988	0
2	1313	202.41979032123	0
2	1318	202.912423061657	0
2	1323	203.269062894202	0
2	1328	204.084194054951	0
2	1333	204.672563323464	0
2	1338	204.80377746117	0
2	1343	205.935326563786	0
2	1348	208.014685698454	0
2	1353	208.676712788324	0
2	1358	210.349784014885	0
2	1363	210.669664722172	0
2	1368	211.253850779484	0
2	1375	212.933035781137	0
2	1378	213.021694980512	0.070911695404
2	1383	215.330123595578	0
2	1388	215.595131987464	0
2	1393	218.733323190685	0
2	1398	219.279507852585	0
2	1403	219.826304133882	0
2	1409	221.836469619421	0
2	1414	222.679015992707	0
2	1419	223.136367454182	0
2	1424	223.452281364896	0
2	1429	226.55839211171	0
2	1436	227.540037578829	0
2	1439	227.628696778204	0.050426413829
2	1444	230.242313399203	0
2	1449	230.78682867187	0
2	1454	231.325559386029	0
2	1459	232.457449053337	0
2	1464	232.656818711997	0
2	1469	235.956897712174	0
2	1474	237.229910827332	0
2	1479	238.340251753373	0
2	1484	239.068850450761	0
2	1489	241.784735466577	0
2	1494	242.385507550942	0
2	1499	242.814064207432	0
2	1504	243.070960306506	0
2	1509	243.318149874125	0
2	1514	244.281127503979	0
2	1519	244.560124613905	0
2	1524	245.843188504591	0
2	1529	246.108386575207	0
2	1534	247.262897107259	0
2	1539	247.825896819567	0
2	1544	247.926209598006	0
2	1549	248.855889067215	0
2	1556	249.652466015132	0
2	1559	249.741125214507	0.024536209699
2	1564	250.599997616182	0
2	1569	252.408572819036	0
2	1574	253.729467048523	0
2	1579	255.742954361748	0
2	1584	255.967444316789	0
2	1589	257.34746094968	0
2	1594	257.587815691763	0
2	1599	260.015361268112	0
2	1606	260.429845302788	0
2	1611	260.518504502163	0.058572725202
2	1614	260.607163701538	0.075816501156
2	1619	260.932066202829	0
2	1624	262.113318584112	0
2	1629	262.893138857596	0
2	1634	264.081027039374	0
2	1639	264.359892394791	0
2	1644	266.10279402884	0
2	1649	266.86678674298	0
2	1654	268.33392440061	0
2	1659	269.681262873539	0
2	1664	269.803748703344	0
2	1673	273.049555894236	0
2	1676	273.138215093611	0.042830663011
2	1679	273.226874292986	0.099663796583
2	1684	273.47630531939	0
2	1689	275.296976049166	0
2	1694	275.699396774996	0
2	1699	276.094147640007	0
2	1704	278.909728302618	0
2	1711	280.189556469276	0
2	1714	280.278215668651	0.048972504481
2	1719	281.151808313027	0
2	1724	281.427025291691	0
2	1729	282.725519055758	0
2	1734	283.004033465659	0
2	1739	284.457627090551	0
2	1744	285.435483598157	0
2	1749	285.97524482014	0
2	1754	288.789130410558	0
2	1760	289.936677488344	0
2	1765	290.130741023672	0
2	1770	290.458354212914	0
2	1775	291.995931160019	0
2	1780	293.881162166821	0
2	1785	295.136776689185	0
2	1792	295.534045155839	0
2	1795	295.622704355214	0.047943973736
2	1800	296.215383542794	0
2	1805	297.030184392857	0
2	1810	297.910094520571	0
2	1815	300.573649943136	0
2	1820	302.882682786002	0
2	1825	303.359751464243	0
2	1830	303.722417610549	0
2	1835	303.840059157209	0
2	1840	304.297820543223	0
2	1845	305.355470628963	0
2	1850	308.050797458776	0
2	1855	308.473614749471	0
2	1860	308.591617166397	0
2	1865	308.963693177345	0
2	1870	309.743853494396	0
2	1875	309.969071226561	0
2	1880	310.899468505509	0
2	1885	311.110055784598	0
2	1890	311.486597870577	0
2	1895	313.351942344749	0
2	1900	313.992652531665	0
2	1905	314.381343215305	0
2	1910	315.089901840833	0
2	1915	318.187087438903	0
2	1920	318.994854468274	0
2	1925	319.738429202925	0
2	1930	323.011571222808	0
2	1935	323.637760457095	0
2	1940	327.097789466763	0
2	1945	327.326152110003	0
2	1950	328.20347564418	0
2	1957	328.363731245143	0
2	1960	328.452390444518	0.004366090441
2	1965	328.955305635545	0
2	1970	329.251426335522	0
2	1975	329.597818667726	0
2	1980	329.832396822111	0
2	1985	330.787214059638	0
2	1990	330.967079189529	0
2	1995	331.919696218581	0
2	2000	333.772499552245	0
2	2005	334.559933948908	0
2	2010	335.055720774087	0
2	2015	337.19198847965	0
2	2020	337.37306706993	0
2	2025	337.594222889854	0
2	2030	337.785066194719	0
2	2037	337.945289936788	0
2	2040	338.033949136163	0.082465140406
2	2045	339.320345169	0
2	2050	339.513283075052	0
2	2055	340.167285379852	0
2	2060	341.003925981042	0
2	2065	341.525995372195	0
2	2070	341.804952819868	0
2	2075	341.94892813402	0
2	2082	345.126923970405	0
2	2087	345.21558316978	0.07636651575
2	2090	345.304242369155	0.049621035135
2	2095	345.932018025288	0
2	2100	346.12058339055	0
2	2105	346.67429088008	0
2	2113	347.02524529112	0.205471680561
2	2116	347.113904490495	0.03354010343
2	2121	347.829114523195	0
2	2126	348.009831114743	0
2	2131	348.929829330244	0
2	2136	349.414459138516	0
2	2141	349.643603473898	0
2	2148	349.988122771109	0
2	2151	350.076781970484	0.009129944203
2	2156	350.862994815898	0
2	2161	351.675327380892	0
2	2168	352.898332103281	0
2	2171	352.986991302656	0.016489742423
2	2176	353.25973195738	0
2	2181	354.625451257209	0
2	2186	356.075017832888	0
2	2191	356.253036572242	0
2	2196	356.575264213362	0
2	2201	356.897656923887	0
2	2206	357.612050706347	0
2	2211	357.943984905769	0
2	2216	359.794486651931	0
2	2221	361.024669896197	0
2	2226	361.290480699675	0
2	2231	363.068130623217	0
2	2238	363.631788572469	0
2	2241	363.720447771844	0.026436101461
2	2246	364.158327999982	0
2	2251	364.643002130075	0
2	2256	366.065316073759	0
2	2263	368.47879605137	0
2	2266	368.567455250745	0.025362733919
2	2271	369.892871026393	0
2	2276	370.487706379273	0
2	2281	371.0905690899	0
2	2286	371.244041602435	0
2	2291	372.475909371629	0
2	2296	374.780417430469	0
2	2301	376.307367215904	0
2	2306	377.294099409905	0
2	2311	377.534896242836	0
2	2316	377.753553825611	0
2	2321	377.933639411043	0
2	2326	378.545821017706	0
2	2331	378.654273013442	0
2	2336	378.831331897287	0
2	2341	379.627000177166	0
2	2346	379.861865451824	0
2	2351	381.235269791132	0
2	2356	381.341331523104	0
2	2361	383.156657171469	0
2	2366	383.761885826179	0
2	2371	384.21074798242	0
2	2378	384.538237779687	0
2	2381	384.626896979062	0.005454468273
2	2386	385.021334652641	0
2	2391	388.420849978805	0
2	2396	390.238880427069	0
2	2403	390.39741058768	0
2	2406	390.486069787055	0.004147295753
2	2411	391.586506413743	0
2	2416	392.36758834214	0
2	2421	393.800096173782	0
2	2428	393.931905139978	0
2	2431	394.020564339353	0.056026347172
2	2436	395.135953825341	0
2	2441	396.004812590482	0
2	2446	396.292149738804	0
2	2451	397.694335215184	0
2	2456	399.131100797669	0
2	2462	399.721139375695	0
2	2467	402.520649385856	0
2	2472	402.816772495475	0
2	2477	403.071394105571	0
2	2482	404.414787293607	0
2	2487	405.500211662889	0
2	2492	406.185745109296	0
2	2497	407.922647421762	0
2	2502	408.688508630298	0
2	2507	408.810945682791	0
2	2512	409.248977386258	0
2	2517	410.649504010862	0
2	2522	411.749690252361	0
2	2527	411.897232620433	0
2	2532	412.380471447199	0
2	2537	413.212131041801	0
2	2542	413.457951802284	0
2	2547	413.79421525059	0
2	2552	413.959708120287	0
2	2557	415.429055849638	0
2	2562	417.008491472385	0
2	2567	419.669195693771	0
2	2572	421.563621026403	0
2	2577	422.240059725767	0
2	2582	422.530676654843	0
2	2589	423.299284836237	0
2	2592	423.387944035612	0.064755671197
2	2597	423.845860017886	0
2	2602	424.581764501948	0
2	2607	427.181184493581	0
2	2612	428.594136087811	0
2	2617	428.722998774782	0
2	2622	428.929637773821	0
2	2627	429.152107104088	0
2	2632	429.29519206691	0
2	2637	430.368258669184	0
2	2642	430.522134376393	0
2	2647	431.308954675798	0
2	2652	431.60584711532	0
2	2657	432.38105585037	0
2	2662	432.906179300942	0
2	2667	433.014671930151	0
2	2672	433.114435835183	0
2	2677	435.280811464098	0
2	2682	435.407532949805	0
2	2687	436.115028597541	0
2	2692	436.924343184797	0
2	2697	437.024284178986	0
2	2702	437.118393393741	0
2	2707	437.455854844121	0
2	2712	437.997522121136	0
2	2717	438.100555052878	0
2	2724	438.797718574141	0
2	2727	438.886377773516	0.055997859599
2	2732	439.513069548027	0
2	2737	439.799148296449	0
2	2742	440.245324325971	0
2	2747	440.356280228287	0
2	2752	440.760398244916	0
2	2757	441.499537490053	0
2	2762	442.852692519505	0
2	2767	443.440332328939	0
2	2772	443.716811102632	0
2	2777	445.098572454476	0
2	2782	445.967733784432	0
2	2787	446.655784580204	0
2	2792	447.641674062943	0
2	2797	449.028780487916	0
2	2802	450.685332051876	0
2	2807	450.993229945621	0
2	2815	451.344184356661	0.194359239232
2	2818	451.432843556036	0.231194195729
2	2823	451.793466121838	0
2	2828	452.137469182405	0
2	2833	453.002127108653	0
2	2838	453.262507910396	0
2	2843	454.671754053888	0
2	2848	455.238345427572	0
2	2853	455.468953794826	0
2	2858	458.036548521502	0
2	2863	460.240647159115	0
2	2868	460.596132424535	0
2	2873	461.957837067351	0
2	2878	462.897651679366	0
2	2883	463.04066145658	0
2	2888	463.269954089798	0
2	2893	463.778184120673	0
2	2898	463.900054009314	0
2	2903	464.54801730203	0
2	2910	464.959032151753	0
2	2915	465.047691351128	0.081611760939
2	2918	465.136350550503	0.078850868619
2	2923	466.917972262798	0
2	2928	467.254131549549	0
2	2935	467.767495034018	0
2	2938	467.856154233393	0.05040159792
2	2943	471.391756242133	0
2	2950	471.840209397762	0
2	2953	471.928868597137	0.047348536915
2	2958	473.384429791146	0
2	2963	473.819957362989	0
2	2968	475.778934888565	0
2	2973	476.056206876853	0
2	2978	477.184077948875	0
2	2983	479.130129091497	0
2	2988	479.804780748914	0
2	2993	481.595209197211	0
2	2998	484.913200521278	0
2	3003	485.090949372451	0
2	3008	486.899160929709	0
2	3013	487.108477598874	0
2	3018	487.875048794213	0
2	3023	489.995863566298	0
2	3028	491.046246578046	0
2	3033	491.498953920829	0
2	3038	492.648160894293	0
2	3043	494.463207658607	0
2	3048	496.75059396403	0
2	3053	497.851266961801	0
2	3058	498.114021637714	0
2	3063	498.312241120506	0
2	3068	498.475972434987	0
2	3073	501.037338512957	0
2	3078	503.698126346236	0
2	3083	505.773404992989	0
2	3088	505.985610365616	0
2	3093	506.189009130879	0
2	3098	506.701405174758	0
2	3105	506.944928094119	0
2	3108	507.033587293494	0.022235605804
2	3115	508.244260685763	0
2	3118	508.332919885138	0.015142212116
2	3123	509.119639432124	0
2	3128	509.227908593238	0
2	3133	509.813451066907	0
2	3138	511.743973391795	0
2	3143	513.006014021028	0
2	3148	513.098537541374	0
2	3155	514.256398967473	0
2	3158	514.345058166848	0.074400250309
2	3164	515.012576186538	0
2	3169	515.794428468962	0
2	3174	516.12277930322	0
2	3179	516.828875857349	0
2	3184	517.202536079944	0
2	3189	523.172771731244	0
2	3196	523.48974710036	0
2	3199	523.578406299735	0.00038562905
2	3206	524.120444411835	0
2	3209	524.20910361121	0.07903251399
2	3214	525.276817838617	0
2	3219	525.647927307586	0
2	3224	526.267338042476	0
2	3229	526.420570859981	0
2	3234	526.91172314972	0
2	3239	528.880385293904	0
2	3244	531.104453482635	0
2	3249	531.902118377872	0
2	3254	532.028829713877	0
2	3259	532.643178037771	0
2	3264	532.824120374808	0
2	3271	532.940758232136	0
2	3274	533.029417431511	0.011842128431
2	3279	533.548497193601	0
2	3284	534.944847762212	0
2	3289	535.850841021471	0
2	3294	536.155844734635	0
2	3299	536.734486725389	0
2	3304	537.948281224241	0
2	3309	538.516486072398	0
2	3314	539.872163331792	0
2	3321	541.238813433455	0
2	3324	541.32747263283	0.074105241371
2	3329	542.704376056012	0
2	3334	543.112240495906	0
2	3339	544.843500246274	0
2	3344	545.758195864562	0
2	3349	546.233973550016	0
2	3354	547.379556398757	0
2	3359	548.12443117616	0
2	3364	548.637217810007	0
2	3369	549.852846924133	0
2	3374	549.94558442215	0
2	3379	550.391282236169	0
2	3384	550.751743609914	0
2	3389	551.132011959684	0
2	3394	552.07785929554	0
2	3399	552.17689317036	0
2	3404	552.693290285869	0
2	3409	555.006345675838	0
2	3414	555.399317187195	0
2	3419	555.98646220464	0
2	3424	558.865146431415	0
2	3429	559.258857487929	0
2	3434	559.898851276615	0
2	3439	560.3521568386	0
2	3444	560.543596650236	0
2	3449	560.943421565954	0
2	3454	561.491624191245	0
2	3459	562.104183471243	0
2	3464	562.454544380469	0
2	3469	563.866821612034	0
2	3474	565.611455762336	0
2	3479	567.978373432076	0
2	3484	568.46940257338	0
2	3491	570.261061010186	0
2	3494	570.349720209561	0.033766170839
2	3499	570.914152121429	0
2	3504	571.264781568021	0
2	3509	573.05984605426	0
2	3517	573.982083391651	0
2	3520	574.070742591026	0.063028691984
2	3525	574.39139549332	0
2	3530	575.100796747511	0
2	3535	576.376873941591	0
2	3540	576.754738999625	0
2	3545	578.483501378814	0
2	3550	578.666649681555	0
2	3555	580.932750239808	0
2	3560	581.753490739902	0
2	3565	581.846805501981	0
2	3570	582.17150746267	0
2	3575	582.356290675231	0
2	3580	582.671992054448	0
2	3585	583.071386074281	0
2	3592	584.093232492776	0
2	3595	584.181891692151	0.049759053664
2	3600	584.60132442523	0
2	3605	584.764679441196	0
2	3610	586.173343177469	0
2	3615	586.482366527338	0
2	3622	586.66828956973	0
2	3625	586.756948769105	0.034809582049
2	3630	586.931614869687	0
2	3635	588.630588281486	0
2	3640	588.970233580402	0
2	3647	590.922189258541	0
2	3650	591.010848457916	0.000606847116
2	3655	592.978973996482	0
2	3662	597.745517269798	0
2	3665	597.834176469173	0.075824331616
2	3670	598.224897822208	0
2	3675	598.400319820011	0
2	3680	600.822959275117	0
2	3685	601.616692110163	0
2	3690	601.832607261169	0
2	3695	601.960041541307	0
2	3702	602.173130553902	0
2	3707	602.261789753277	0.008149833368
2	3710	602.350448952652	0.009178345063
2	3717	602.68099617352	0
2	3720	602.769655372895	0.015656498981
2	3725	604.659699257604	0
2	3730	606.082053316255	0
2	3735	606.915620228337	0
2	3742	607.028809855709	0
2	3745	607.117469055084	0.048147652043
2	3750	608.089293096339	0
2	3755	608.280245190525	0
2	3760	608.373516057224	0
2	3765	608.581685833976	0
2	3770	609.301070615066	0
2	3775	610.524771759787	0
2	3780	610.704275711903	0
2	3785	611.109292425629	0
2	3790	613.70078961731	0
2	3795	615.609335878531	0
2	3800	615.8118368703	0
2	3805	616.237527923247	0
2	3810	616.472322169532	0
2	3815	616.586371546966	0
2	3820	617.529329999324	0
2	3825	617.852526740097	0
2	3830	618.55005796049	0
2	3835	619.237966862182	0
2	3840	621.070351707057	0
2	3845	622.73244200345	0
2	3850	623.035435334663	0
2	3855	623.757784284825	0
2	3860	624.2162212705	0
2	3866	625.522840639801	0
2	3871	625.810381203482	0
2	3876	626.244293382677	0
2	3881	626.449299063612	0
2	3886	629.019472903949	0
2	3891	629.396745874828	0
2	3896	629.507506004517	0
2	3901	630.560190984321	0
2	3906	631.139102611855	0
2	3911	631.448890211332	0
2	3916	632.554609891096	0
2	3921	632.865182133548	0
2	3926	633.320148604969	0
2	3931	633.424028145688	0
2	3936	633.735192293058	0
2	3941	634.542371311058	0
2	3946	637.666355412585	0
2	3951	639.405383212154	0
2	3956	640.070680796238	0
2	3961	640.474861778926	0
2	3966	641.417723606383	0
2	3971	642.615957441472	0
2	3976	642.965864444194	0
2	3981	643.105938239838	0
2	3986	645.007342688099	0
2	3991	645.587274985753	0
2	3996	646.900738819061	0
2	4001	647.048826022143	0
2	4006	649.552274512922	0
2	4011	650.792249661704	0
2	4016	650.971358002195	0
2	4021	651.844674966721	0
2	4026	652.194258365919	0
2	4031	652.412789908618	0
2	4036	652.901600324246	0
2	4041	653.131112231394	0
2	4046	653.484281957625	0
2	4051	653.866575081875	0
2	4056	654.7825594675	0
2	4061	657.996961009556	0
2	4066	659.647379926521	0
2	4073	659.828402455749	0
2	4076	659.917061655124	0.086168947228
2	4081	660.359192657586	0
2	4086	662.007703680778	0
2	4091	662.778790636346	0
2	4096	664.569834501097	0
2	4101	664.790012631612	0
2	4106	665.926161069927	0
2	4111	666.6931347611	0
2	4116	667.294198223474	0
2	4121	667.678934748621	0
2	4126	667.824446408183	0
2	4131	668.573488768488	0
2	4136	669.192558928506	0
2	4141	669.999846488906	0
2	4146	672.079010363285	0
2	4151	672.638979500187	0
2	4156	672.993815435591	0
2	4161	673.389189981337	0
2	4166	674.156878660934	0
2	4171	675.201610056321	0
2	4176	676.322644849263	0
2	4181	680.628345792273	0
2	4186	680.867746692561	0
2	4191	681.466386450571	0
2	4196	683.307688460762	0
2	4201	684.286952625062	0
2	4206	685.427679247808	0
2	4211	685.922855474404	0
2	4217	687.253872488115	0
2	4222	687.784262430175	0
2	4227	688.332893352206	0
2	4232	689.401711241034	0
2	4237	690.17811749521	0
2	4242	690.534069617202	0
2	4247	690.639194498596	0
2	4252	690.784736459996	0
2	4259	691.579912077034	0
2	4264	691.668571276409	0.037496003415
2	4267	691.757230475784	0.072887654308
2	4272	692.23134654253	0
2	4277	692.700623306703	0
2	4282	693.492845842575	0
2	4287	693.740120330481	0
2	4296	694.208548818365	0
2	4299	694.29720801774	0.048005693673
2	4302	694.385867217115	0.098393779172
2	4307	694.608298544106	0
2	4312	694.785834178746	0
2	4317	697.327683163507	0
2	4322	700.188330736982	0
2	4327	700.673058872653	0
2	4332	701.796193187568	0
2	4337	702.310088440421	0
2	4342	705.812998183419	0
2	4347	706.249882759136	0
2	4352	707.012301420884	0
2	4357	707.774166739853	0
2	4362	711.693654258854	0
2	4367	711.825408420633	0
2	4372	715.72985898916	0
2	4379	715.874278252385	0
2	4384	715.96293745176	0.07585666102
2	4387	716.051596651135	0.033365303894
2	4392	717.323877552356	0
2	4397	718.903647619332	0
2	4402	721.590245962158	0
2	4407	722.502070376998	0
2	4412	723.681761432166	0
2	4417	723.851663562531	0
2	4422	725.233345257892	0
2	4427	726.495017750308	0
2	4432	727.22847237634	0
2	4437	728.004785346571	0
2	4442	728.8251791288	0
2	4449	734.86769064884	0
2	4452	734.956349848215	0.035167146648
2	4457	737.073220944779	0
2	4462	738.366614813475	0
2	4469	739.414994043607	0
2	4472	739.503653242982	0.007198646501
2	4477	739.611499803127	0
2	4482	739.968608557658	0
2	4487	740.614629905075	0
2	4492	740.820996467863	0
2	4499	741.745663520683	0
2	4502	741.834322720058	0.067700884521
2	4507	741.926153556132	0
2	4512	742.158513364601	0
2	4519	742.508538299184	0
2	4522	742.597197498559	0.068106570514
2	4527	743.419713306078	0
2	4532	745.330024145177	0
2	4537	745.737225682992	0
2	4542	747.195618053248	0
2	4547	748.226048380565	0
2	4552	749.725577856867	0
2	4557	749.92143434175	0
2	4566	750.488303340061	0
2	4570	750.839257751101	0.290578699672
2	4573	750.927916950476	0.370038073205
2	4578	751.130690118851	0
2	4583	751.639560194089	0
2	4588	752.03729838732	0
2	4593	753.046033632954	0
2	4598	753.583587583635	0
[...]
7	3179	516.828875857349	0
7	3184	517.202536079944	0
7	3189	523.172771731244	0
7	3196	523.48974710036	0
7	3199	523.578406299735	0
7	3206	524.120444411835	0
7	3209	524.20910361121	0
7	3214	525.276817838617	0
7	3219	525.647927307586	0
7	3224	526.267338042476	0
7	3229	526.420570859981	0
7	3234	526.91172314972	0
7	3239	528.880385293904	0
7	3244	531.104453482635	0
7	3249	531.902118377872	0
7	3254	532.028829713877	0
7	3259	532.643178037771	0
7	3264	532.824120374808	0
7	3271	532.940758232136	0
7	3274	533.029417431511	0
7	3279	533.548497193601	0
7	3284	534.944847762212	0
7	3289	535.850841021471	0
7	3294	536.155844734635	0
7	3299	536.734486725389	0
7	3304	537.948281224241	0
7	3309	538.516486072398	0
7	3314	539.872163331792	0
7	3321	541.238813433455	0
7	3324	541.32747263283	0
7	3329	542.704376056012	0
7	3334	543.112240495906	0
7	3339	544.843500246274	0
7	3344	545.758195864562	0
7	3349	546.233973550016	0
7	3354	547.379556398757	0
7	3359	548.12443117616	0
7	3364	548.637217810007	0
7	3369	549.852846924133	0
7	3374	549.94558442215	0
7	3379	550.391282236169	0
7	3384	550.751743609914	0
7	3389	551.132011959684	0
7	3394	552.07785929554	0
7	3399	552.17689317036	0
7	3404	552.693290285869	0
7	3409	555.006345675838	0
7	3414	555.399317187195	0
7	3419	555.98646220464	0
7	3424	558.865146431415	0
7	3429	559.258857487929	0
7	3434	559.898851276615	0
7	3439	560.3521568386	0
7	3444	560.543596650236	0
7	3449	560.943421565954	0
7	3454	561.491624191245	0
7	3459	562.104183471243	0
7	3464	562.454544380469	0
7	3469	563.866821612034	0
7	3474	565.611455762336	0
7	3479	567.978373432076	0
7	3484	568.46940257338	0
7	3491	570.261061010186	0
7	3494	570.349720209561	0
7	3499	570.914152121429	0
7	3504	571.264781568021	0
7	3509	573.05984605426	0
7	3517	573.982083391651	0
7	3520	574.070742591026	0
7	3525	574.39139549332	0
7	3530	575.100796747511	0
7	3535	576.376873941591	0
7	3540	576.754738999625	0
7	3545	578.483501378814	0
7	3550	578.666649681555	0
7	3555	580.932750239808	0
7	3560	581.753490739902	0
7	3565	581.846805501981	0
7	3570	582.17150746267	0
7	3575	582.356290675231	0
7	3580	582.671992054448	0
7	3585	583.071386074281	0
7	3592	584.093232492776	0
7	3595	584.181891692151	0
7	3600	584.60132442523	0
7	3605	584.764679441196	0
7	3610	586.173343177469	0
7	3615	586.482366527338	0
7	3622	586.66828956973	0
7	3625	586.756948769105	0
7	3630	586.931614869687	0
7	3635	588.630588281486	0
7	3640	588.970233580402	0
7	3647	590.922189258541	0
7	3650	591.010848457916	0
7	3655	592.978973996482	0
7	3662	597.745517269798	0
7	3665	597.834176469173	0
7	3670	598.224897822208	0
7	3675	598.400319820011	0
7	3680	600.822959275117	0
7	3685	601.616692110163	0
7	3690	601.832607261169	0
7	3695	601.960041541307	0
7	3702	602.173130553902	0
7	3707	602.261789753277	0
7	3710	602.350448952652	0
7	3717	602.68099617352	0
7	3720	602.769655372895	0
7	3725	604.659699257604	0
7	3730	606.082053316255	0
7	3735	606.915620228337	0
7	3742	607.028809855709	0
7	3745	607.117469055084	0
7	3750	608.089293096339	0
7	3755	608.280245190525	0
7	3760	608.373516057224	0
7	3765	608.581685833976	0
7	3770	609.301070615066	0
7	3775	610.524771759787	0
7	3780	610.704275711903	0
7	3785	611.109292425629	0
7	3790	613.70078961731	0
7	3795	615.609335878531	0
7	3800	615.8118368703	0
7	3805	616.237527923247	0
7	3810	616.472322169532	0
7	3815	616.586371546966	0
7	3820	617.529329999324	0
7	3825	617.852526740097	0
7	3830	618.55005796049	0
7	3835	619.237966862182	0
7	3840	621.070351707057	0
7	3845	622.73244200345	0
7	3850	623.035435334663	0
7	3855	623.757784284825	0
7	3860	624.2162212705	0
7	3866	625.522840639801	0
7	3871	625.810381203482	0
7	3876	626.244293382677	0
7	3881	626.449299063612	0
7	3886	629.019472903949	0
7	3891	629.396745874828	0
7	3896	629.507506004517	0
7	3901	630.560190984321	0
7	3906	631.139102611855	0
7	3911	631.448890211332	0
7	3916	632.554609891096	0
7	3921	632.865182133548	0
7	3926	633.320148604969	0
7	3931	633.424028145688	0
7	3936	633.735192293058	0
7	3941	634.542371311058	0
7	3946	637.666355412585	0
7	3951	639.405383212154	0
7	3956	640.070680796238	0
7	3961	640.474861778926	0
7	3966	641.417723606383	0
7	3971	642.615957441472	0
7	3976	642.965864444194	0
7	3981	643.105938239838	0
7	3986	645.007342688099	0
7	3991	645.587274985753	0
7	3996	646.900738819061	0
7	4001	647.048826022143	0
7	4006	649.552274512922	0
7	4011	650.792249661704	0
7	4016	650.971358002195	0
7	4021	651.844674966721	0
7	4026	652.194258365919	0
7	4031	652.412789908618	0
7	4036	652.901600324246	0
7	4041	653.131112231394	0
7	4046	653.484281957625	0
7	4051	653.866575081875	0
7	4056	654.7825594675	0
7	4061	657.996961009556	0
7	4066	659.647379926521	0
7	4073	659.828402455749	0
7	4076	659.917061655124	0
7	4081	660.359192657586	0
7	4086	662.007703680778	0
7	4091	662.778790636346	0
7	4096	664.569834501097	0
7	4101	664.790012631612	0
7	4106	665.926161069927	0
7	4111	666.6931347611	0
7	4116	667.294198223474	0
7	4121	667.678934748621	0
7	4126	667.824446408183	0
7	4131	668.573488768488	0
7	4136	669.192558928506	0
7	4141	669.999846488906	0
7	4146	672.079010363285	0
7	4151	672.638979500187	0
7	4156	672.993815435591	0
7	4161	673.389189981337	0
7	4166	674.156878660934	0
7	4171	675.201610056321	0
7	4176	676.322644849263	0
7	4181	680.628345792273	0
7	4186	680.867746692561	0
7	4191	681.466386450571	0
7	4196	683.307688460762	0
7	4201	684.286952625062	0
7	4206	685.427679247808	0
7	4211	685.922855474404	0
7	4217	687.253872488115	0
7	4222	687.784262430175	0
7	4227	688.332893352206	0
7	4232	689.401711241034	0
7	4237	690.17811749521	0
7	4242	690.534069617202	0
7	4247	690.639194498596	0
7	4252	690.784736459996	0
7	4259	691.579912077034	0
7	4264	691.668571276409	0
7	4267	691.757230475784	0
7	4272	692.23134654253	0
7	4277	692.700623306703	0
7	4282	693.492845842575	0
7	4287	693.740120330481	0
7	4296	694.208548818365	0
7	4299	694.29720801774	0
7	4302	694.385867217115	0
7	4307	694.608298544106	0
7	4312	694.785834178746	0
7	4317	697.327683163507	0
7	4322	700.188330736982	0
7	4327	700.673058872653	0
7	4332	701.796193187568	0
7	4337	702.310088440421	0
7	4342	705.812998183419	0
7	4347	706.249882759136	0
7	4352	707.012301420884	0
7	4357	707.774166739853	0
7	4362	711.693654258854	0
7	4367	711.825408420633	0
7	4372	715.72985898916	0
7	4379	715.874278252385	0
7	4384	715.96293745176	0
7	4387	716.051596651135	0
7	4392	717.323877552356	0
7	4397	718.903647619332	0
7	4402	721.590245962158	0
7	4407	722.502070376998	0
7	4412	723.681761432166	0
7	4417	723.851663562531	0
7	4422	725.233345257892	0
7	4427	726.495017750308	0
7	4432	727.22847237634	0
7	4437	728.004785346571	0
7	4442	728.8251791288	0
7	4449	734.86769064884	0
7	4452	734.956349848215	0
7	4457	737.073220944779	0
7	4462	738.366614813475	0
7	4469	739.414994043607	0
7	4472	739.503653242982	0
7	4477	739.611499803127	0
7	4482	739.968608557658	0
7	4487	740.614629905075	0
7	4492	740.820996467863	0
7	4499	741.745663520683	0
7	4502	741.834322720058	0
7	4507	741.926153556132	0
7	4512	742.158513364601	0
7	4519	742.508538299184	0
7	4522	742.597197498559	0
7	4527	743.419713306078	0
7	4532	745.330024145177	0
7	4537	745.737225682992	0
7	4542	747.195618053248	0
7	4547	748.226048380565	0
7	4552	749.725577856867	0
7	4557	749.92143434175	0
7	4566	750.488303340061	0
7	4570	750.839257751101	0
7	4573	750.927916950476	0
7	4578	751.130690118851	0
7	4583	751.639560194089	0
7	4588	752.03729838732	0
7	4593	753.046033632954	0
7	4598	753.583587583635	0
7	4603	754.139532640321	0
7	4608	754.845062819737	0
7	4613	755.583171077087	0
7	4620	756.871377813868	0
7	4623	756.960037013243	0
7	4628	757.448886802333	0
7	4633	759.011270004575	0
7	4638	761.53278793865	0
7	4643	763.748632892265	0
7	4650	766.477973027072	0
7	4653	766.566632226447	0
7	4658	766.70004639385	0
7	4665	767.113932813129	0
7	4668	767.202592012504	0
7	4673	768.539153465367	0
7	4680	769.486984025541	0
7	4683	769.575643224916	0
7	4688	769.906589387579	0
7	4693	770.749185286925	0
7	4698	771.455169994188	0
7	4703	771.857581058869	0
7	4708	772.082723225489	0
7	4713	772.349862311046	0
7	4718	772.488862283584	0
7	4723	773.276234422819	0
7	4728	774.084460066761	0
7	4733	776.419475057278	0
7	4738	776.985670993041	0
7	4743	777.741763298118	0
7	4748	778.242493814973	0
7	4753	779.86059117567	0
7	4760	780.806967810526	0
7	4763	780.895627009901	0
7	4768	781.080625357583	0
7	4773	781.558398896366	0
7	4778	782.468691051118	0
7	4783	784.566432056858	0
7	4788	785.099433658114	0
7	4793	785.499319305129	0
7	4798	785.910437408194	0
7	4803	786.468766780205	0
7	4808	787.502865313709	0
7	4813	788.537398775395	0
7	4818	789.297506791657	0
7	4823	789.477059274249	0
7	4828	793.041090624257	0
7	4835	794.437171701424	0
7	4838	794.525830900799	0
7	4843	796.003713664731	0
7	4848	796.300450232968	0
7	4853	797.133204824097	0
7	4858	798.427921192961	0
7	4863	798.723403727532	0
7	4868	799.055793424793	0
7	4875	800.001552271608	0
7	4878	800.090211470983	0
7	4883	800.237581478125	0
7	4888	800.937273380638	0
7	4893	801.909789692345	0
7	4898	802.132009305458	0
7	4903	802.509017957846	0
7	4908	804.246813489327	0
7	4913	806.983231715756	0
7	4919	807.501512503616	0
7	4924	807.596354373531	0
7	4929	808.781857438689	0
7	4934	809.692534492815	0
7	4939	809.793416225784	0
7	4944	810.596233910551	0
7	4949	811.357863751925	0
7	4954	811.812137328995	0
7	4959	812.241423502158	0
7	4964	812.408272978071	0
7	4969	813.532201503015	0
7	4974	815.491977690161	0
7	4979	815.770979756476	0
7	4984	816.650804317705	0
7	4989	817.470096673733	0
7	4996	818.260158804907	0
7	4999	818.348818004282	0
7	5004	818.56304803905	0
7	5009	819.125154425034	0
7	5016	821.042922734464	0
7	5019	821.131581933839	0
7	5024	822.11049225633	0
7	5029	822.693877124596	0
7	5034	823.905604563123	0
7	5039	825.004170450316	0
7	5044	826.277345068715	0
7	5051	829.646300024201	0
7	5054	829.734959223576	0
7	5059	830.773415650366	0
7	5064	831.607878049839	0
7	5071	832.516991689804	0
7	5074	832.605650889179	0
7	5079	833.750561461304	0
7	5084	837.289398938377	0
7	5089	840.159515513719	0
7	5094	841.186142724178	0
7	5099	842.975935291069	0
7	5104	843.270387012481	0
7	5109	844.5205483663	0
7	5114	845.169792150998	0
7	5119	845.66293710575	0
7	5126	845.964601149864	0
7	5129	846.053260349239	0
7	5134	847.110468502806	0
7	5139	848.415454618113	0
7	5146	848.674712312454	0
7	5151	848.763371511829	0
7	5154	848.852030711204	0
7	5161	849.040531430441	0
7	5164	849.129190629816	0
7	5169	850.859920883927	0
7	5174	851.736455409736	0
7	5179	852.802828855532	0
7	5184	854.316789076306	0
7	5189	854.760379256665	0
7	5194	854.931740413947	0
7	5199	855.674964748749	0
7	5204	855.955278203769	0
7	5209	856.725601527092	0
7	5214	857.01695169483	0
7	5219	858.677612517726	0
7	5226	859.801735759348	0
7	5229	859.890394958723	0
7	5234	860.902585232121	0
7	5239	861.421514420232	0
7	5244	863.851938771417	0
7	5249	866.113403457498	0
7	5254	866.380277985272	0
7	5259	868.361758851699	0
7	5264	868.521856384069	0
7	5270	868.872810795109	0
7	5275	870.259864837096	0
7	5280	870.385880148599	0
7	5285	870.88892693077	0
7	5292	871.027142902727	0
7	5295	871.115802102102	0
7	5300	871.236780460202	0
7	5305	873.000398616485	0
7	5312	874.109432922432	0
7	5315	874.198092121807	0
7	5320	874.436127853155	0
7	5325	874.942676085134	0
7	5330	876.601323326593	0
7	5335	876.928762250395	0
7	5340	877.544661932546	0
7	5345	879.626736854218	0
7	5350	881.593534628014	0
7	5355	881.70750003361	0
7	5360	882.104158030794	0
7	5365	882.384857273298	0
7	5370	883.112037941849	0
7	5375	883.455447174613	0
7	5380	884.181998357547	0
7	5385	884.499288563276	0
7	5390	886.271807990779	0
7	5395	886.973733972791	0
7	5400	887.583051453364	0
7	5405	888.124678559288	0
7	5410	889.086275701532	0
7	5415	889.912652259154	0
7	5420	890.090114778866	0
7	5425	890.505301593509	0
7	5430	895.357258266083	0
7	5435	895.525533912293	0
7	5440	895.643723003775	0
7	5445	897.432937813086	0
7	5450	898.482132642169	0
7	5455	900.839895585566	0
7	5460	902.167103791242	0
7	5467	905.710043772087	0
7	5470	905.798702971462	0
7	5477	907.183830915006	0
7	5480	907.272490114381	0
7	5485	907.505267261061	0
7	5490	909.021302119837	0
7	5495	909.336589100925	0
7	5500	909.44105936507	0
7	5505	910.168944999772	0
7	5510	910.711661178823	0
7	5517	910.885581359558	0
7	5520	910.974240558933	0
7	5525	911.3566821694	0
7	5530	911.778719529083	0
7	5535	912.696824347171	0
7	5540	913.925292287488	0
7	5545	914.492482566262	0
7	5550	914.659117943352	0
7	5555	915.815895266359	0
7	5560	916.48855901503	0
7	5565	916.930057048293	0
7	5570	918.04928166357	0
7	5575	918.139970442814	0
7	5580	918.82377241427	0
7	5585	919.586764011853	0
7	5590	919.705664182357	0
7	5595	919.910994272845	0
7	5600	920.758747908336	0
7	5605	920.85084567463	0
7	5610	921.0689964942	0
7	5615	921.357535980102	0
7	5621	921.708490391142	0
7	5626	922.574490372339	0
7	5631	923.82639104416	0
7	5638	925.646562421104	0
7	5641	925.735221620479	0
7	5646	926.134722138535	0
7	5651	926.559640382843	0
7	5656	927.342550038332	0
7	5661	927.507352562269	0
7	5666	927.97739009551	0
7	5671	928.594913978034	0
7	5676	929.264840367275	0
7	5681	930.932966813442	0
7	5686	931.680667420969	0
7	5691	931.819714438816	0
7	5696	932.646713240741	0
7	5701	933.532034676728	0
7	5706	934.750716928898	0
7	5711	934.908648990614	0
7	5716	935.348407505249	0
7	5721	935.538678092504	0
7	5726	936.106452611947	0
7	5731	936.480227893585	0
7	5736	937.089730539207	0
7	5741	937.311881295709	0
7	5748	937.942942647777	0
7	5753	938.031601847152	0
7	5756	938.120261046527	0
7	5761	938.730858322186	0
7	5766	939.061044355381	0
7	5771	940.636446178416	0
7	5776	941.712126787729	0
7	5781	943.257869118855	0
7	5786	943.809932229445	0
7	5791	944.008744452635	0
7	5796	944.180329235393	0
7	5801	944.72922054628	0
7	5808	944.937282545766	0
7	5811	945.025941745141	0
7	5816	945.913762654574	0
7	5821	948.331543219668	0
7	5826	948.737653981208	0
7	5831	949.770735900721	0
7	5836	950.23984576192	0
7	5841	951.252089604543	0
7	5846	951.708284240627	0
7	5851	953.0116051443	0
7	5856	954.066021905554	0
7	5861	955.593797843201	0
7	5866	956.374954046461	0
7	5871	957.866916893157	0
7	5876	957.989912743468	0
7	5881	959.682305515269	0
7	5886	960.10063713034	0
7	5893	960.845016303289	0
7	5896	960.933675502664	0
7	5901	961.998357200314	0
7	5906	962.875142774442	0
7	5911	963.411295192784	0
7	5916	963.968497398266	0
7	5921	964.687507718447	0
7	5926	965.139777201088	0
7	5931	965.487498531965	0
7	5936	965.621920162108	0
7	5941	966.3318611112	0
7	5948	967.924712440295	0
7	5951	968.01337163967	0
7	5956	969.654020264875	0
7	5961	969.995038535762	0
7	5968	971.437325814809	0
7	5972	971.788280225849	0
7	5977	972.374500005716	0
7	5984	973.168054748924	0
7	5987	973.256713948299	0
7	5992	974.673041649441	0
7	5997	976.830601127729	0
7	6002	976.920217187272	0
7	6007	977.232497131618	0
7	6012	977.845048201802	0
7	6017	979.063464849724	0
7	6022	980.253860761618	0
7	6027	980.741292424996	0
7	6032	980.832253886137	0
7	6037	982.493463420962	0
7	6042	982.632442337416	0
7	6047	982.791264037968	0
7	6052	983.123383936404	0
7	6057	984.868706184493	0
7	6062	985.357617813884	0
7	6067	986.195188794221	0
7	6072	986.713978467717	0
7	6077	987.827286651035	0
7	6082	989.423547013491	0
7	6087	991.366470915149	0
7	6092	992.736803344051	0
7	6097	992.888857388911	0
7	6102	993.395934566317	0
7	6107	993.656019202877	0
7	6112	993.804522450112	0
7	6117	993.958953404579	0
7	6122	994.230384012973	0
7	6127	995.741318948009	0
7	6134	996.598548487648	0
7	6137	996.687207687023	0
7	6142	998.304256766759	0
7	6147	998.69625097265	0
7	6152	999.22370020992	0
8	56	8.566462902052	0.077616352778
8	76	11.436341429812	0.081052327798
8	91	12.167940585496	0.037456955221
8	96	12.256599784871	0.078085379543
8	170	28.972969534769	0.075153626775
8	173	29.061628734144	0.15042405402
8	176	29.150287933519	0.229221359874
8	181	29.238947132894	0.051516455028
8	353	61.370152080105	0.022506459074
8	387	67.710259684129	0.051946015731
8	402	69.269203696078	0.069002632762
8	457	73.579158801408	0.054728065334
8	532	83.179430316743	0.013715986126
8	542	87.569459345858	0.070619321718
8	667	109.74659557571	0.022223509715
8	672	109.835254775085	0.06351208919
8	706	115.362309930878	0.182324425857
8	708	115.450969130253	0.13781698651
8	718	115.947080157165	0.000973677156
8	778	125.112930240237	0.052152227747
8	843	136.675947836271	0.054472693291
8	888	146.730596708835	0.079418575458
8	923	149.973639051391	0.069079917717
8	953	152.525842665433	0.011557944247
8	1008	159.326686901248	0.034150309206
8	1023	161.090697635232	0.084342023246
8	1094	171.24220936464	0.060847978611
8	1214	189.857118776524	0.075096267089
8	1374	212.933035781137	0.070911695404
8	1435	227.540037578829	0.050426413829
8	1555	249.652466015132	0.024536209699
8	1605	260.429845302788	0.058572725202
8	1610	260.518504502163	0.075816501156
8	1672	273.049555894236	0.042830663011
8	1675	273.138215093611	0.099663796583
8	1710	280.189556469276	0.048972504481
8	1791	295.534045155839	0.047943973736
8	1956	328.363731245143	0.004366090441
8	2036	337.945289936788	0.082465140406
8	2081	345.126923970405	0.07636651575
8	2086	345.21558316978	0.049621035135
8	2108	346.936586091745	0.205471680561
8	2112	347.02524529112	0.03354010343
8	2147	349.988122771109	0.009129944203
8	2167	352.898332103281	0.016489742423
8	2237	363.631788572469	0.026436101461
8	2262	368.47879605137	0.025362733919
8	2377	384.538237779687	0.005454468273
8	2402	390.39741058768	0.004147295753
8	2427	393.931905139978	0.056026347172
8	2588	423.299284836237	0.064755671197
8	2723	438.797718574141	0.055997859599
8	2812	451.255525157286	0.194359239232
8	2814	451.344184356661	0.231194195729
8	2909	464.959032151753	0.081611760939
8	2914	465.047691351128	0.078850868619
8	2934	467.767495034018	0.05040159792
8	2949	471.840209397762	0.047348536915
8	3104	506.944928094119	0.022235605804
8	3114	508.244260685763	0.015142212116
8	3154	514.256398967473	0.074400250309
8	3195	523.48974710036	0.00038562905
8	3205	524.120444411835	0.07903251399
8	3270	532.940758232136	0.011842128431
8	3320	541.238813433455	0.074105241371
8	3490	570.261061010186	0.033766170839
8	3516	573.982083391651	0.063028691984
8	3591	584.093232492776	0.049759053664
8	3621	586.66828956973	0.034809582049
8	3646	590.922189258541	0.000606847116
8	3661	597.745517269798	0.075824331616
8	3701	602.173130553902	0.008149833368
8	3706	602.261789753277	0.009178345063
8	3716	602.68099617352	0.015656498981
8	3741	607.028809855709	0.048147652043
8	4072	659.828402455749	0.086168947228
8	4258	691.579912077034	0.037496003415
8	4263	691.668571276409	0.072887654308
8	4295	694.208548818365	0.048005693673
8	4298	694.29720801774	0.098393779172
8	4378	715.874278252385	0.07585666102
8	4383	715.96293745176	0.033365303894
8	4448	734.86769064884	0.035167146648
8	4468	739.414994043607	0.007198646501
8	4498	741.745663520683	0.067700884521
8	4518	742.508538299184	0.068106570514
8	4567	750.750598551726	0.290578699672
8	4569	750.839257751101	0.370038073205
8	4619	756.871377813868	0.087262956263
8	4649	766.477973027072	0.08129151793
8	4664	767.113932813129	0.035579614046
8	4679	769.486984025541	0.008938264337
8	4759	780.806967810526	0.012589237883
8	4834	794.437171701424	0.075867671737
8	4874	800.001552271608	0.006868581207
8	4995	818.260158804907	0.070426757755
8	5015	821.042922734464	0.084811569972
8	5050	829.646300024201	0.012204779858
8	5070	832.516991689804	0.067650705882
8	5125	845.964601149864	0.001739260599
8	5145	848.674712312454	0.034249698096
8	5150	848.763371511829	0.029689413082
8	5160	849.040531430441	0.051571799846
8	5225	859.801735759348	0.063782239348
8	5267	868.784151595734	0.205163964428
8	5291	871.027142902727	0.035674265042
8	5311	874.109432922432	0.042841578291
8	5466	905.710043772087	0.061988378558
8	5476	907.183830915006	0.065150739012
8	5516	910.885581359558	0.029206872695
8	5618	921.619831191767	0.207176954447
8	5637	925.646562421104	0.021302320644
8	5747	937.942942647777	0.016949050616
8	5752	938.031601847152	0.017011805862
8	5807	944.937282545766	0.047458363034
8	5892	960.845016303289	0.034609699724
8	5947	967.924712440295	0.012842108676
8	5969	971.699621026474	0.309672696061
8	5983	973.168054748924	0.01473969505
8	6133	996.598548487648	0.08087016208

