version 2
run General-170-20240201-11:04:21-40057
attr configname General
attr datetime 20240201-11:04:21
attr experiment General
attr inifile main.ini
attr iterationvars "$0=1.4, $1=1.7, $2=70"
attr iterationvarsf 1.4,1.7,70-
attr measurement "$0=1.4, $1=1.7, $2=70"
attr network Rete
attr processid 40057
attr repetition 10
attr replication #10
attr resultdir results
attr runnumber 170
attr seedset 170
param Rete.lambda 1.4
param Rete.a 0.3s
param Rete.b 1.7s
param Rete.c 0.1s
param Rete.d 0.3s
param Rete.mu 3.0
param Rete.source2.interArrivalTime exponential(1s/lambda)
param Rete.source2.jobServiceTime exponential(1s/mu)
param Rete.source2.deadline uniform(a,b)
param Rete.server2.j 70
param Rete.server2.V uniform(c,d)

vector 0 Rete.passiveQueue queueLength:vector ETV
attr interpolationmode sample-hold
attr title "queue length, vector"
vector 1 Rete.sink lifeTime:vector ETV
attr interpolationmode none
attr title "lifetime of arrived jobs, vector"
attr unit s
vector 2 Rete.sink totalQueueingTime:vector ETV
attr interpolationmode none
attr title "the total time spent in queues by arrived jobs, vector"
attr unit s
vector 3 Rete.sink queuesVisited:vector ETV
attr interpolationmode none
attr title "the total number of queues visited by arrived jobs, vector"
vector 4 Rete.sink totalServiceTime:vector ETV
attr interpolationmode none
attr title "the total time spent  by arrived jobs, vector"
attr unit s
vector 5 Rete.sink totalDelayTime:vector ETV
attr interpolationmode none
attr title "the total time spent in delay nodes by arrived jobs, vector"
attr unit s
vector 6 Rete.sink delaysVisited:vector ETV
attr interpolationmode none
attr title "the total number of delays visited by arrived jobs, vector"
vector 7 Rete.sink generation:vector ETV
attr interpolationmode none
attr title "the generation of the arrived jobs, vector"
vector 8 Rete.passiveQueue queueingTime:vector ETV
attr interpolationmode none
attr title "queueing time at dequeue, vector"
attr unit s
0	0	0	0
0	30	2.808968319614	1
0	31	2.878358967396	0
0	55	4.940401821091	1
0	56	5.013845037921	0
0	145	19.515327177743	1
0	146	19.580905038765	0
0	160	20.592888336702	1
0	161	20.649753991372	0
0	200	26.839783078007	1
0	201	26.884503395168	0
0	205	26.931416088482	1
0	206	26.970269208775	0
0	230	32.61703523001	1
0	231	32.693167328511	0
0	406	63.80867805579	1
0	407	63.829392342329	0
0	426	65.246092871537	1
0	427	65.285873639175	0
0	491	75.230446626632	1
0	492	75.2919467056	0
0	551	86.989833542195	1
0	552	87.073394466987	0
0	561	87.525132112557	1
0	563	87.555038277914	2
0	564	87.590589675805	1
0	567	87.676355489412	0
0	611	97.663575950695	1
0	612	97.706847098403	0
0	616	97.737352491314	1
0	617	97.79261291201	0
0	621	97.823379003727	1
0	622	97.878378725617	0
0	631	98.597242743925	1
0	632	98.600968853311	0
0	727	108.818901823103	1
0	728	108.867905520322	0
0	732	108.903430834021	1
0	733	108.953671333929	0
0	757	112.701427661942	1
0	758	112.771248967597	0
0	792	119.957102303336	1
0	793	120.027276649784	0
0	862	136.270341266917	1
0	863	136.292624631744	0
0	897	138.80987599131	1
0	898	138.837786719306	0
0	922	142.978438428392	1
0	923	143.050409603645	0
0	997	155.004969081993	1
0	998	155.033221114822	0
0	1037	161.677280492739	1
0	1038	161.694422335458	0
0	1088	166.894609205473	1
0	1089	166.896320212796	0
0	1183	176.255646509085	1
0	1185	176.308223464369	2
0	1186	176.332693014676	1
0	1189	176.418458828283	0
0	1228	184.665748995251	1
0	1229	184.673723882069	0
0	1263	191.073078205209	1
0	1264	191.135855077985	0
0	1273	191.736366360727	1
0	1274	191.809741207883	0
0	1323	197.323946874967	1
0	1324	197.404191401425	0
0	1489	222.119934899478	1
0	1490	222.130983299015	0
0	1524	228.990598817076	1
0	1525	228.992847362044	0
0	1584	236.36520107646	1
0	1585	236.425731415599	0
0	1624	239.589361561217	1
0	1626	239.619065986459	2
0	1627	239.668058133321	1
0	1630	239.753823946928	0
0	1654	241.76436429673	1
0	1656	241.765176327757	2
0	1657	241.774504752256	1
0	1660	241.860270565863	0
0	1669	242.200413743316	1
0	1670	242.21692095846	0
0	1689	243.665876104607	1
0	1690	243.673965742732	0
0	1694	243.700039700299	1
0	1695	243.759731556339	0
0	1756	253.914132047839	1
0	1757	253.971616072713	0
0	1800	257.737048260129	1
0	1801	257.774987087322	0
0	1845	264.50495850923	1
0	1846	264.52893722243	0
0	1920	278.650310189933	1
0	1921	278.689808172497	0
0	1930	278.937792987438	1
0	1931	279.018337504802	0
0	1985	289.161631826125	1
0	1986	289.208375974685	0
0	2020	294.326835921607	1
0	2021	294.39592908547	0
0	2075	301.200473040456	1
0	2076	301.226288728644	0
0	2085	301.896064596825	1
0	2086	301.981354475459	0
0	2121	306.347630971441	1
0	2122	306.42626103097	0
0	2151	314.196176122452	1
0	2152	314.265187054932	0
0	2191	319.440883379215	1
0	2192	319.481666515276	0
0	2472	357.822122997617	1
0	2473	357.858638903733	0
0	2507	366.25921677263	1
0	2508	366.320149625566	0
0	2512	366.385066241904	1
0	2513	366.405915439173	0
0	2587	373.205074808337	1
0	2588	373.214181968569	0
0	2627	377.920631822374	1
0	2628	377.994415539985	0
0	2707	385.721322880348	1
0	2708	385.747757835701	0
0	2717	386.91971901904	1
0	2718	386.967079933851	0
0	2792	399.630035901552	1
0	2793	399.631458919469	0
0	2809	400.425829632091	1
0	2810	400.509177135673	0
0	2873	406.775134054072	1
0	2874	406.833159756155	0
0	2888	408.067752064622	1
0	2889	408.116075209224	0
0	2903	411.34236908943	1
0	2904	411.368914895871	0
0	2963	420.469377238542	1
0	2964	420.504818501566	0
0	2998	423.896173462957	1
0	3000	423.953906111675	2
0	3001	423.957704169373	1
0	3004	424.04346998298	0
0	3018	426.829487679597	1
0	3019	426.895714294143	0
0	3028	427.160445592253	1
0	3029	427.178189227211	0
0	3073	432.877156272107	1
0	3074	432.940654141264	0
0	3118	439.553459798667	1
0	3119	439.618388563652	0
0	3128	440.590825682736	1
0	3129	440.655779318528	0
0	3133	440.715375036845	1
0	3134	440.741545132135	0
0	3143	441.815436443677	1
0	3144	441.834190433442	0
0	3209	448.593629979045	1
0	3210	448.598597802979	0
0	3254	455.549941023212	1
0	3255	455.551285875417	0
0	3264	456.129759629181	1
0	3265	456.135367726672	0
0	3284	458.581526958388	1
0	3285	458.660778988068	0
0	3389	477.145537696538	1
0	3390	477.197659982319	0
0	3414	479.820830835323	1
0	3415	479.899781005917	0
0	3449	484.794231411152	1
0	3450	484.814644233839	0
0	3479	490.067573071365	1
0	3481	490.098740966261	2
0	3482	490.099166002672	1
0	3486	490.118655541604	2
0	3487	490.184931816279	1
0	3490	490.270697629886	0
0	3530	492.203974428409	1
0	3531	492.258934334099	0
0	3575	498.368194424892	1
0	3576	498.450636896469	0
0	3590	499.966512905994	1
0	3591	500.050039944646	0
0	3635	509.628776082897	1
0	3636	509.70415899077	0
0	3645	512.504769447778	1
0	3646	512.540745563046	0
0	3650	512.594194725212	1
0	3651	512.626511376653	0
0	3685	517.265385450747	1
0	3686	517.33533174712	0
0	3720	523.0830324711	1
0	3721	523.15722752761	0
0	3725	523.194741927913	1
0	3726	523.242993341217	0
0	3735	523.779781167689	1
0	3737	523.796575787213	2
0	3738	523.855352267239	1
0	3741	523.941118080846	0
0	3770	528.34850122283	1
0	3771	528.418232488226	0
0	3835	536.018611762273	1
0	3836	536.058346462446	0
0	3850	537.716679251036	1
0	3851	537.747733441114	0
0	3981	561.305225411957	1
0	3982	561.316535451683	0
0	4016	566.941396319514	1
0	4017	567.020692990548	0
0	4121	581.504830727873	1
0	4122	581.573733546865	0
0	4252	594.203816219959	1
0	4253	594.255872590754	0
0	4302	601.872516414489	1
0	4303	601.95142227653	0
0	4342	608.150876997697	1
0	4343	608.217833431053	0
0	4407	616.221188906847	1
0	4408	616.253889508038	0
0	4467	626.560084977667	1
0	4468	626.619927719812	0
0	4517	635.482087740963	1
0	4518	635.5070906136	0
0	4557	641.376081650884	1
0	4558	641.432701840933	0
0	4573	643.125270532016	1
0	4574	643.130832139103	0
0	4628	651.122402708703	1
0	4629	651.132904876862	0
0	4743	670.433476181101	1
0	4744	670.488956804708	0
0	4868	684.191680748148	1
0	4869	684.234064988049	0
0	4883	685.207752142904	1
0	4884	685.25854718766	0
0	4969	698.828060048969	1
0	4971	698.865075313588	2
0	4972	698.90813619004	1
0	4976	698.921203649111	2
0	4977	698.993902003647	1
0	4980	699.079667817254	0
0	4999	701.219797617715	1
0	5000	701.304324074735	0
0	5084	710.781188045823	1
0	5085	710.834906064399	0
0	5099	712.156004955652	1
0	5100	712.227100782676	0
0	5109	712.499307241403	1
0	5110	712.549633658621	0
0	5134	714.753919615142	1
0	5135	714.783937817792	0
0	5144	714.912453818603	1
0	5145	714.993276912759	0
0	5159	716.207643854511	1
0	5160	716.255053141957	0
0	5169	718.315339578545	1
0	5170	718.387458653608	0
0	5174	718.46134010571	1
0	5175	718.473224467215	0
0	5179	718.542366279206	1
0	5180	718.558990280822	0
0	5244	727.771611773096	1
0	5245	727.835952257609	0
0	5300	735.718488091476	1
0	5301	735.792982997248	0
0	5315	737.343801796664	1
0	5316	737.362464217191	0
0	5340	741.498169036468	1
0	5341	741.582445386491	0
0	5355	742.451948906208	1
0	5356	742.493304876507	0
0	5380	744.568666979533	1
0	5382	744.570526169041	2
0	5383	744.654148159348	1
0	5387	744.705634190177	2
0	5388	744.739913972955	1
0	5391	744.825679786562	0
0	5410	748.204764287905	1
0	5412	748.258331105352	2
0	5413	748.273842238029	1
0	5417	748.347687838068	2
0	5418	748.359608051636	1
0	5421	748.445373865243	0
0	5450	750.753849597686	1
0	5451	750.821154659671	0
0	5490	758.320030219626	1
0	5491	758.323636191524	0
0	5550	765.998497790654	1
0	5551	766.06884329415	0
0	5595	774.667022009913	1
0	5596	774.712309514327	0
0	5661	785.317533438141	1
0	5662	785.374403981336	0
0	5681	786.817427066073	1
0	5682	786.867375888131	0
0	5706	790.806085971598	1
0	5708	790.817065078109	2
0	5709	790.852080401861	1
0	5712	790.937846215468	0
0	5791	800.716641844776	1
0	5792	800.790422429923	0
0	5826	808.693467359891	1
0	5827	808.694653922778	0
0	5951	831.596527276416	1
0	5952	831.633105631383	0
0	5987	836.9010534787	1
0	5988	836.96215386225	0
0	6002	840.053269578335	1
0	6003	840.055289144537	0
0	6107	850.515318803149	1
0	6108	850.56742451657	0
0	6137	851.964772345426	1
0	6138	852.031869685826	0
0	6172	856.405102161615	1
0	6173	856.475477189688	0
0	6187	858.11123776371	1
0	6188	858.114333274565	0
0	6237	866.95209857496	1
0	6238	867.015242085588	0
0	6353	885.565669621739	1
0	6354	885.618086525305	0
0	6403	897.73301586161	1
0	6404	897.787988090391	0
0	6413	900.342680623136	1
0	6414	900.353037220027	0
0	6493	912.266227609709	1
0	6494	912.310912316148	0
0	6568	928.31647832237	1
0	6569	928.3700792572	0
0	6573	928.392203234936	1
0	6574	928.455845070807	0
0	6670	940.281293582469	1
0	6671	940.291361202267	0
0	6699	944.667596047559	1
0	6700	944.675047611587	0
0	6704	944.726079367682	1
0	6705	944.760813425194	0
0	6814	956.71575593786	1
0	6815	956.729842975367	0
0	6819	956.775052597446	1
0	6820	956.815608788974	0
0	6839	959.309102038548	1
0	6840	959.37162055012	0
0	6859	961.997065109357	1
0	6860	962.00653636886	0
0	6874	965.843152787724	1
0	6875	965.919865815318	0
0	7009	996.329307743953	1
0	7010	996.41185709315	0
0	7030	998.134139935861	1
0	7031	998.201412774966	0
1	5	0.124395694007	0.085765813607
1	10	0.349708354379	0.085765813607
1	15	1.533696957633	0.085765813607
1	20	2.035170525756	0.085765813607
1	25	2.229313115974	0.085765813607
1	32	2.878358967396	0.085765813607
1	35	2.964124781003	0.155156461389
1	40	3.426863608557	0.085765813607
1	45	3.547935828286	0.085765813607
1	50	4.513859575732	0.085765813607
1	57	5.013845037921	0.085765813607
1	60	5.099610851528	0.159209030437
1	65	5.239408304529	0.085765813607
1	70	7.332113204409	0.085765813607
1	75	8.735889115723	0.085765813607
1	80	9.188216145354	0.085765813607
1	85	11.926033980487	0.085765813607
1	90	12.71282022727	0.085765813607
1	95	13.027646724585	0.085765813607
1	100	13.329317251663	0.085765813607
1	105	13.835477432744	0.085765813607
1	110	14.154440336348	0.085765813607
1	115	14.743493143583	0.085765813607
1	120	16.27024184754	0.085765813607
1	125	16.381989298986	0.085765813607
1	130	17.304596803751	0.085765813607
1	135	18.545179991535	0.085765813607
1	140	19.124492718507	0.085765813607
1	147	19.580905038765	0.085765813607
1	150	19.666670852372	0.151343674629
1	155	20.421633054276	0.085765813607
1	162	20.649753991372	0.085765813607
1	165	20.735519804979	0.142631468277
1	170	21.587686514353	0.085765813607
1	175	23.285009297135	0.085765813607
1	180	24.959934375547	0.085765813607
1	185	25.089340116585	0.085765813607
1	190	25.689158512262	0.085765813607
1	195	26.744610161988	0.085765813607
1	202	26.884503395168	0.085765813607
1	207	26.970269208775	0.130486130768
1	210	27.056035022382	0.1246189339
1	215	29.290633806007	0.085765813607
1	220	30.21149198209	0.085765813607
1	225	32.488343363738	0.085765813607
1	232	32.693167328511	0.085765813607
1	235	32.778933142118	0.161897912108
1	240	33.527790737859	0.085765813607
1	245	33.63196143426	0.085765813607
1	250	34.676969920847	0.085765813607
1	255	35.83805219958	0.085765813607
1	260	36.497842239799	0.085765813607
1	265	38.250223755887	0.085765813607
1	270	39.917864743575	0.085765813607
1	275	41.514518871992	0.085765813607
1	280	41.649672703159	0.085765813607
1	285	42.413820744317	0.085765813607
1	290	42.513440258734	0.085765813607
1	295	43.376467360624	0.085765813607
1	300	44.522215724914	0.085765813607
1	305	44.821522808562	0.085765813607
1	310	44.967285512399	0.085765813607
1	315	45.068317389094	0.085765813607
1	320	45.95983779056	0.085765813607
1	325	48.011888263698	0.085765813607
1	330	50.23735507441	0.085765813607
1	335	50.361990192916	0.085765813607
1	340	51.634492686576	0.085765813607
1	345	52.722456855547	0.085765813607
1	350	53.183501954224	0.085765813607
1	356	53.735267784673	0.085765813607
1	361	56.686874985028	0.085765813607
1	366	57.061363566619	0.085765813607
1	371	59.57503003068	0.085765813607
1	376	61.794065155767	0.085765813607
1	381	61.993558363623	0.085765813607
1	386	62.48285071924	0.085765813607
1	391	62.635576788648	0.085765813607
1	396	63.140074544561	0.085765813607
1	401	63.676708275708	0.085765813607
1	408	63.829392342329	0.085765813607
1	411	63.915158155936	0.106480100146
1	416	64.426580353433	0.085765813607
1	421	64.855880777159	0.085765813607
1	428	65.285873639175	0.085765813607
1	431	65.371639452782	0.125546581245
1	436	66.766308382791	0.085765813607
1	441	66.980115511232	0.085765813607
1	446	67.303113828946	0.085765813607
1	451	67.888460836646	0.085765813607
1	456	70.715648501274	0.085765813607
1	461	71.093902161318	0.085765813607
1	466	71.428177254393	0.085765813607
1	471	72.454983790363	0.085765813607
1	476	72.600163979848	0.085765813607
1	481	72.740248596711	0.085765813607
1	486	73.893323729137	0.085765813607
1	493	75.2919467056	0.085765813607
1	496	75.377712519207	0.147265892575
1	501	77.414149913091	0.085765813607
1	506	77.999055547285	0.085765813607
1	511	78.561031373111	0.085765813607
1	516	80.868401430227	0.085765813607
1	521	81.245606390616	0.085765813607
1	526	81.413318178853	0.085765813607
1	531	81.82094544949	0.085765813607
1	536	82.090979089323	0.085765813607
1	541	84.347564804734	0.085765813607
1	546	85.541910480722	0.085765813607
1	553	87.073394466987	0.085765813607
1	556	87.159160280594	0.169326738399
1	565	87.590589675805	0.085765813607
1	568	87.676355489412	0.151223376855
1	571	87.762121303019	0.207083025105
1	576	87.882020395602	0.085765813607
1	581	89.584492892301	0.085765813607
1	586	91.37806984511	0.085765813607
1	591	92.614480882164	0.085765813607
1	596	95.309567550266	0.085765813607
1	601	96.334640876296	0.085765813607
1	606	96.86263781464	0.085765813607
1	613	97.706847098403	0.085765813607
1	618	97.79261291201	0.129036961315
1	623	97.878378725617	0.141026234303
1	626	97.964144539224	0.140765535497
1	633	98.600968853311	0.085765813607
1	636	98.686734666918	0.089491922993
1	641	100.806793258983	0.085765813607
1	646	101.182371776986	0.085765813607
1	651	101.609080753044	0.085765813607
1	656	102.580912749734	0.085765813607
1	661	102.856147123927	0.085765813607
1	666	103.601744694169	0.085765813607
1	671	104.177721057048	0.085765813607
1	676	104.546382789353	0.085765813607
1	681	104.780418603308	0.085765813607
1	686	105.158053915883	0.085765813607
1	691	105.722217574217	0.085765813607
1	696	106.194718903277	0.085765813607
1	701	106.516540412938	0.085765813607
1	707	107.012497656994	0.085765813607
1	712	107.377089247093	0.085765813607
1	717	107.987581288367	0.085765813607
1	722	108.58801363524	0.085765813607
1	729	108.867905520322	0.085765813607
1	734	108.953671333929	0.134769510826
1	737	109.039437147536	0.136006313515
1	742	109.861490048953	0.085765813607
1	747	111.373070397056	0.085765813607
1	752	112.305992251166	0.085765813607
1	759	112.771248967597	0.085765813607
1	762	112.857014781204	0.155587119262
1	767	113.328537139587	0.085765813607
1	772	113.885616676079	0.085765813607
1	777	116.430981148417	0.085765813607
1	782	117.684443412555	0.085765813607
1	787	119.256500169701	0.085765813607
1	794	120.027276649784	0.085765813607
1	797	120.113042463391	0.155940160055
1	802	120.458204780455	0.085765813607
1	807	121.433210920392	0.085765813607
1	812	121.645001304683	0.085765813607
1	817	125.469244559707	0.085765813607
1	822	125.995662166847	0.085765813607
1	827	126.362776558461	0.085765813607
1	832	126.738156328646	0.085765813607
1	837	127.489839384899	0.085765813607
1	842	129.925422051004	0.085765813607
1	847	130.608805212189	0.085765813607
1	852	134.093114783202	0.085765813607
1	857	134.946752921981	0.085765813607
1	864	136.292624631744	0.085765813607
1	867	136.378390445351	0.108049178434
1	872	136.671383275703	0.085765813607
1	877	137.100783719687	0.085765813607
1	882	137.629770655657	0.085765813607
1	887	137.920582251505	0.085765813607
1	892	138.279778894812	0.085765813607
1	899	138.837786719306	0.085765813607
1	902	138.923552532913	0.113676541603
1	907	139.245066227098	0.085765813607
1	912	142.123639918658	0.085765813607
1	917	142.73972772622	0.085765813607
1	924	143.050409603645	0.085765813607
1	927	143.136175417252	0.15773698886
1	932	143.253258926386	0.085765813607
1	937	144.02824560508	0.085765813607
1	942	144.725400400752	0.085765813607
1	947	145.383826238961	0.085765813607
1	952	146.19002097607	0.085765813607
1	957	146.998443118612	0.085765813607
1	962	148.065527593545	0.085765813607
1	967	149.487908865428	0.085765813607
1	972	150.216963996799	0.085765813607
1	977	151.459481984939	0.085765813607
1	982	151.569492555104	0.085765813607
1	987	152.979516332336	0.085765813607
1	992	153.090792150345	0.085765813607
1	999	155.033221114822	0.085765813607
1	1002	155.118986928429	0.114017846436
1	1007	157.319744679591	0.085765813607
1	1012	157.627536770636	0.085765813607
1	1017	157.99823931623	0.085765813607
1	1022	158.267594327456	0.085765813607
1	1027	160.306073677334	0.085765813607
1	1032	161.445012603391	0.085765813607
1	1039	161.694422335458	0.085765813607
1	1042	161.780188149065	0.102907656326
1	1047	161.949023664487	0.085765813607
1	1052	162.22909161203	0.085765813607
1	1058	162.48876660918	0.085765813607
1	1063	164.529703637149	0.085765813607
1	1068	164.743218681641	0.085765813607
1	1073	165.614014150558	0.085765813607
1	1078	165.744561354626	0.085765813607
1	1083	166.100829911157	0.085765813607
1	1090	166.896320212796	0.085765813607
1	1093	166.982086026403	0.08747682093
1	1098	167.643708489606	0.085765813607
1	1103	168.288551158526	0.085765813607
1	1108	168.602827777077	0.085765813607
1	1113	168.74012875675	0.085765813607
1	1118	168.947433682299	0.085765813607
1	1123	169.223368284118	0.085765813607
1	1128	170.74286805232	0.085765813607
1	1133	171.259596535661	0.085765813607
1	1138	171.919834233273	0.085765813607
1	1143	172.392124293696	0.085765813607
1	1148	172.565798622506	0.085765813607
1	1153	173.63476543232	0.085765813607
1	1158	175.343166570387	0.085765813607
1	1163	175.66823297991	0.085765813607
1	1168	175.971163833809	0.085765813607
1	1173	176.065328291982	0.085765813607
1	1178	176.226537253343	0.085765813607
1	1187	176.332693014676	0.085765813607
1	1190	176.418458828283	0.162812319198
1	1193	176.50422464189	0.196001177521
1	1198	178.351794429304	0.085765813607
1	1203	181.71406717071	0.085765813607
1	1208	182.054624724259	0.085765813607
1	1213	182.85961495864	0.085765813607
1	1218	183.688462683455	0.085765813607
1	1223	184.042332015215	0.085765813607
1	1230	184.673723882069	0.085765813607
1	1233	184.759489695676	0.093740700425
1	1238	187.641649532191	0.085765813607
1	1243	187.981350360216	0.085765813607
1	1248	188.079675079236	0.085765813607
1	1253	188.26574857035	0.085765813607
1	1258	189.862456991087	0.085765813607
1	1265	191.135855077985	0.085765813607
1	1268	191.221620891592	0.148542686383
1	1275	191.809741207883	0.085765813607
1	1278	191.89550702149	0.159140660763
1	1283	193.263357889124	0.085765813607
1	1288	194.023259126041	0.085765813607
1	1293	194.28982843248	0.085765813607
1	1298	194.388252556167	0.085765813607
1	1303	195.349297742055	0.085765813607
1	1308	195.653428140795	0.085765813607
1	1313	196.3141927917	0.085765813607
1	1318	197.286711201851	0.085765813607
1	1325	197.404191401425	0.085765813607
1	1328	197.489957215032	0.166010340065
1	1333	197.873182660079	0.085765813607
1	1338	198.475779596232	0.085765813607
1	1343	200.491650380501	0.085765813607
1	1348	200.673049137052	0.085765813607
1	1353	200.993285617896	0.085765813607
1	1358	201.346887348795	0.085765813607
1	1363	201.634319612416	0.085765813607
1	1368	202.742862251927	0.085765813607
1	1373	205.240895462962	0.085765813607
1	1378	206.118420989562	0.085765813607
1	1383	208.051588408767	0.085765813607
1	1388	208.288245522692	0.085765813607
1	1393	208.842580067083	0.085765813607
1	1398	210.306724307873	0.085765813607
1	1403	210.548944407569	0.085765813607
1	1409	211.119954480228	0.085765813607
1	1414	212.521747745433	0.085765813607
1	1419	212.907389330666	0.085765813607
1	1424	213.623841795141	0.085765813607
1	1429	213.713760520859	0.085765813607
1	1434	214.303779939675	0.085765813607
1	1439	216.588462911142	0.085765813607
1	1444	216.927080108846	0.085765813607
1	1449	217.190948953683	0.085765813607
1	1454	218.142750920022	0.085765813607
1	1459	218.569812235817	0.085765813607
1	1464	218.806327447172	0.085765813607
1	1469	218.94996941025	0.085765813607
1	1474	219.181004473378	0.085765813607
1	1479	219.426926304735	0.085765813607
1	1484	219.851697056073	0.085765813607
1	1491	222.130983299015	0.085765813607
1	1494	222.216749112622	0.096814213144
1	1499	225.197258952878	0.085765813607
1	1504	225.33018377228	0.085765813607
1	1509	225.730051952068	0.085765813607
1	1514	226.081111995684	0.085765813607
1	1519	227.575330083513	0.085765813607
1	1526	228.992847362044	0.085765813607
1	1529	229.078613175651	0.088014358575
1	1534	229.322145177094	0.085765813607
1	1539	229.428723775741	0.085765813607
1	1544	229.745040991087	0.085765813607
1	1549	231.098572719818	0.085765813607
1	1554	231.477556167766	0.085765813607
1	1559	232.959069437387	0.085765813607
1	1564	234.505033587159	0.085765813607
1	1569	234.716325160727	0.085765813607
1	1574	235.403418689364	0.085765813607
1	1579	235.911553201885	0.085765813607
1	1586	236.425731415599	0.085765813607
1	1589	236.511497229206	0.146296152746
1	1594	236.698436263818	0.085765813607
1	1599	236.860623061192	0.085765813607
1	1604	237.139578314444	0.085765813607
1	1609	237.320958831345	0.085765813607
1	1614	238.654587520704	0.085765813607
1	1619	239.410238175657	0.085765813607
1	1628	239.668058133321	0.085765813607
1	1631	239.753823946928	0.164462385711
1	1634	239.839589760535	0.220523774076
1	1639	240.382003143601	0.085765813607
1	1644	240.849617269099	0.085765813607
1	1649	241.525990664486	0.085765813607
1	1658	241.774504752256	0.085765813607
1	1661	241.860270565863	0.095906269133
1	1664	241.94603637947	0.180860051713
1	1671	242.21692095846	0.085765813607
1	1674	242.302686772067	0.102273028751
1	1679	242.841654831267	0.085765813607
1	1684	243.062064997707	0.085765813607
1	1691	243.673965742732	0.085765813607
1	1696	243.759731556339	0.093855451732
1	1699	243.845497369946	0.145457669647
1	1704	244.628186135356	0.085765813607
1	1709	247.836417490842	0.085765813607
1	1714	248.541668727467	0.085765813607
1	1719	248.85393808968	0.085765813607
1	1724	250.105889655777	0.085765813607
1	1729	251.934738280453	0.085765813607
1	1734	252.335191313503	0.085765813607
1	1739	252.693432127701	0.085765813607
1	1744	252.876644727622	0.085765813607
1	1749	253.050995303502	0.085765813607
1	1754	253.865904826617	0.085765813607
1	1760	254.05738188632	0.143249838481
1	1765	254.670071888115	0.085765813607
1	1770	254.913125957547	0.085765813607
1	1775	255.158773274761	0.085765813607
1	1780	255.443305860989	0.085765813607
1	1785	256.113816877347	0.085765813607
1	1790	256.561429811642	0.085765813607
1	1795	256.701914569585	0.085765813607
1	1802	257.774987087322	0.085765813607
1	1805	257.860752900929	0.1237046408
1	1810	258.087446824039	0.085765813607
1	1815	259.045523520867	0.085765813607
1	1820	260.008619005944	0.085765813607
1	1825	260.989263618021	0.085765813607
1	1830	261.287086935822	0.085765813607
1	1835	263.093384202133	0.085765813607
1	1840	263.586547074593	0.085765813607
1	1847	264.52893722243	0.085765813607
1	1850	264.614703036037	0.109744526807
1	1855	264.936232857326	0.085765813607
1	1860	266.834688898999	0.085765813607
1	1865	267.577182919148	0.085765813607
1	1870	267.90592206502	0.085765813607
1	1875	268.55981686803	0.085765813607
1	1880	270.636976240183	0.085765813607
1	1885	271.31019955507	0.085765813607
1	1890	271.596249272164	0.085765813607
1	1895	272.242857872794	0.085765813607
1	1900	272.988433236835	0.085765813607
1	1905	276.822520072874	0.085765813607
1	1910	277.24182068469	0.085765813607
1	1915	278.322332966385	0.085765813607
1	1922	278.689808172497	0.085765813607
1	1925	278.775573986104	0.125263796171
1	1932	279.018337504802	0.085765813607
1	1935	279.104103318409	0.166310330971
1	1940	280.213958273995	0.085765813607
1	1945	280.543055567909	0.085765813607
1	1950	281.200070941677	0.085765813607
1	1955	282.623750379643	0.085765813607
1	1960	283.762544785202	0.085765813607
1	1965	285.115726248714	0.085765813607
1	1970	285.776142884457	0.085765813607
1	1975	287.090833393608	0.085765813607
1	1980	288.007870004442	0.085765813607
1	1987	289.208375974685	0.085765813607
1	1990	289.294141788292	0.132509962167
1	1995	291.195407593704	0.085765813607
1	2000	292.18144815137	0.085765813607
1	2005	292.428688196904	0.085765813607
1	2010	293.825184688937	0.085765813607
1	2015	293.953612093983	0.085765813607
1	2022	294.39592908547	0.085765813607
1	2025	294.481694899077	0.15485897747
1	2030	295.691982271302	0.085765813607
1	2035	295.957108151589	0.085765813607
1	2040	296.171080077138	0.085765813607
1	2045	296.720251756714	0.085765813607
1	2050	296.881473807495	0.085765813607
1	2055	297.40538160676	0.085765813607
1	2060	298.385583353397	0.085765813607
1	2065	298.939695359204	0.085765813607
1	2070	299.293363836438	0.085765813607
1	2077	301.226288728644	0.085765813607
1	2080	301.312054542251	0.111581501795
1	2087	301.981354475459	0.085765813607
1	2090	302.067120289066	0.171055692241
1	2095	303.151238137618	0.085765813607
1	2100	303.364566325598	0.085765813607
1	2105	304.417054128121	0.085765813607
1	2111	305.661343737246	0.085765813607
1	2116	305.847572548253	0.085765813607
1	2123	306.42626103097	0.085765813607
1	2126	306.512026844577	0.164395873136
1	2131	306.77569710926	0.085765813607
1	2136	306.915095396651	0.085765813607
1	2141	309.235892593804	0.085765813607
1	2146	310.727185461209	0.085765813607
1	2153	314.265187054932	0.085765813607
1	2156	314.350952868539	0.154776746087
1	2161	315.127005164763	0.085765813607
1	2166	316.269105818581	0.085765813607
1	2171	316.524489951231	0.085765813607
1	2176	317.146803337607	0.085765813607
1	2181	318.911876212377	0.085765813607
1	2186	319.269778544512	0.085765813607
1	2193	319.481666515276	0.085765813607
1	2196	319.567432328883	0.126548949668
1	2201	320.093739084696	0.085765813607
1	2206	320.8686218211	0.085765813607
1	2211	322.854500939662	0.085765813607
1	2216	323.168119301253	0.085765813607
1	2221	323.51738437247	0.085765813607
1	2226	323.643536933802	0.085765813607
1	2231	324.237480486178	0.085765813607
1	2236	325.568938275383	0.085765813607
1	2241	326.334751145382	0.085765813607
1	2246	326.989947702778	0.085765813607
1	2251	328.9002952392	0.085765813607
1	2256	329.161093916086	0.085765813607
1	2261	329.974397643435	0.085765813607
1	2266	331.006170676192	0.085765813607
1	2271	331.394350282498	0.085765813607
1	2276	331.579830237234	0.085765813607
1	2281	331.776205187906	0.085765813607
1	2286	332.070754657161	0.085765813607
1	2291	332.759953353966	0.085765813607
1	2296	333.105059031506	0.085765813607
1	2301	333.688336746326	0.085765813607
1	2306	333.880243564222	0.085765813607
1	2311	334.769769956974	0.085765813607
1	2316	335.407486254578	0.085765813607
1	2321	335.890692003301	0.085765813607
1	2326	336.011715254463	0.085765813607
1	2331	336.967334711135	0.085765813607
1	2336	337.071492960217	0.085765813607
1	2341	337.616939221825	0.085765813607
1	2346	338.024309118174	0.085765813607
1	2351	338.529257625352	0.085765813607
1	2356	340.097156840907	0.085765813607
1	2361	341.049899162552	0.085765813607
1	2366	341.38999711595	0.085765813607
1	2371	341.483654240606	0.085765813607
1	2376	342.748106388743	0.085765813607
1	2381	343.364849727488	0.085765813607
1	2386	343.685735875529	0.085765813607
1	2391	345.746587986266	0.085765813607
1	2396	345.941440914277	0.085765813607
1	2401	347.662642548444	0.085765813607
1	2406	347.926290182835	0.085765813607
1	2411	348.496731871594	0.085765813607
1	2416	349.034037094183	0.085765813607
1	2421	351.366452408222	0.085765813607
1	2426	351.785011055035	0.085765813607
1	2431	352.434968456882	0.085765813607
1	2436	352.615891942192	0.085765813607
1	2441	353.068813105693	0.085765813607
1	2446	353.210716345193	0.085765813607
1	2451	356.305944628689	0.085765813607
1	2456	356.398898412673	0.085765813607
1	2462	356.917837599575	0.085765813607
1	2467	357.494054566438	0.085765813607
1	2474	357.858638903733	0.085765813607
1	2477	357.94440471734	0.122281719723
1	2482	359.023761038307	0.085765813607
1	2487	362.211436405864	0.085765813607
1	2492	363.595029503732	0.085765813607
1	2497	365.358967042665	0.085765813607
1	2502	366.112543317298	0.085765813607
1	2509	366.320149625566	0.085765813607
1	2514	366.405915439173	0.146698666543
1	2517	366.49168125278	0.106615010876
1	2522	367.257894407077	0.085765813607
1	2527	367.348956741125	0.085765813607
1	2532	368.053805553577	0.085765813607
1	2537	368.244819950817	0.085765813607
1	2542	368.751299167012	0.085765813607
1	2547	368.841891265146	0.085765813607
1	2552	369.180913939017	0.085765813607
1	2557	370.179927710948	0.085765813607
1	2562	370.854721387242	0.085765813607
1	2567	371.017105752049	0.085765813607
1	2572	371.971539372536	0.085765813607
1	2577	372.247927140021	0.085765813607
1	2582	373.060878141974	0.085765813607
1	2589	373.214181968569	0.085765813607
1	2592	373.299947782176	0.094872973839
1	2597	373.917365759253	0.085765813607
1	2602	374.771458690232	0.085765813607
1	2607	375.803847909777	0.085765813607
1	2612	377.069059886654	0.085765813607
1	2617	377.404431488196	0.085765813607
1	2622	377.532102798575	0.085765813607
1	2629	377.994415539985	0.085765813607
1	2632	378.080181353592	0.159549531218
1	2637	378.221703094324	0.085765813607
1	2642	378.970301694797	0.085765813607
1	2647	379.190126459066	0.085765813607
1	2652	380.562978856439	0.085765813607
1	2657	380.900243660104	0.085765813607
1	2662	381.12217596948	0.085765813607
1	2667	381.34241285698	0.085765813607
1	2672	382.032515230982	0.085765813607
1	2677	382.187554460666	0.085765813607
1	2682	383.976183897151	0.085765813607
1	2687	384.295390869241	0.085765813607
1	2692	384.443261038247	0.085765813607
1	2697	384.726068090432	0.085765813607
1	2702	384.912308767388	0.085765813607
1	2709	385.747757835701	0.085765813607
1	2712	385.833523649308	0.11220076896
1	2719	386.967079933851	0.085765813607
1	2722	387.052845747458	0.133126728418
1	2727	387.653226400074	0.085765813607
1	2732	387.818062195197	0.085765813607
1	2737	388.910180654568	0.085765813607
1	2742	391.269160684478	0.085765813607
1	2747	391.58074806465	0.085765813607
1	2752	392.054491376809	0.085765813607
1	2757	392.937808984303	0.085765813607
1	2762	393.723440707941	0.085765813607
1	2767	394.126388678281	0.085765813607
1	2772	395.436735216644	0.085765813607
1	2777	396.055090704781	0.085765813607
1	2782	398.0292395871	0.085765813607
1	2787	398.950941460251	0.085765813607
1	2794	399.631458919469	0.085765813607
1	2797	399.717224733076	0.087188831524
1	2802	400.060983005581	0.085765813607
1	2807	400.403465889577	0.085765813607
1	2813	400.59494294928	0.169113317189
1	2818	400.697911502384	0.085765813607
1	2823	400.81310467818	0.085765813607
1	2828	401.007857864359	0.085765813607
1	2833	401.777331094196	0.085765813607
1	2838	402.927755411013	0.085765813607
1	2843	403.519188823432	0.085765813607
1	2848	404.265437911913	0.085765813607
1	2853	404.626881594094	0.085765813607
1	2858	405.28961933567	0.085765813607
1	2863	405.618084063336	0.085765813607
1	2868	406.567822575718	0.085765813607
1	2875	406.833159756155	0.085765813607
1	2878	406.918925569762	0.14379151569
1	2883	407.822733855167	0.085765813607
1	2890	408.116075209224	0.085765813607
1	2893	408.201841022831	0.134088958209
1	2898	409.068440875904	0.085765813607
1	2905	411.368914895871	0.085765813607
1	2908	411.454680709478	0.112311620048
1	2913	412.321761768955	0.085765813607
1	2918	412.413523587881	0.085765813607
1	2923	412.671855866201	0.085765813607
1	2928	415.347785881899	0.085765813607
1	2933	416.073769664965	0.085765813607
1	2938	417.12683382601	0.085765813607
1	2943	417.293077749781	0.085765813607
1	2948	417.895866240113	0.085765813607
1	2953	418.150946834391	0.085765813607
1	2958	419.188003775828	0.085765813607
1	2965	420.504818501566	0.085765813607
1	2968	420.590584315173	0.121207076631
1	2973	420.933945249912	0.085765813607
1	2978	421.607401962145	0.085765813607
1	2983	421.891932757812	0.085765813607
1	2988	422.854764920645	0.085765813607
1	2993	423.272839662937	0.085765813607
1	3002	423.957704169373	0.085765813607
1	3005	424.04346998298	0.147296520023
1	3008	424.129235796587	0.175329684912
1	3013	426.298746068597	0.085765813607
1	3020	426.895714294143	0.085765813607
1	3023	426.98148010775	0.151992428153
1	3030	427.178189227211	0.085765813607
1	3033	427.263955040818	0.103509448565
1	3038	428.023407785493	0.085765813607
1	3043	428.720321116308	0.085765813607
1	3048	429.100602387423	0.085765813607
1	3053	429.578663620138	0.085765813607
1	3058	431.084401790161	0.085765813607
1	3063	431.667727047254	0.085765813607
1	3068	432.26857912015	0.085765813607
1	3075	432.940654141264	0.085765813607
1	3078	433.026419954871	0.149263682764
1	3083	433.3693635506	0.085765813607
1	3088	433.635801323431	0.085765813607
1	3093	434.3082207537	0.085765813607
1	3098	437.129633341388	0.085765813607
1	3103	438.60783885961	0.085765813607
1	3108	438.997715869078	0.085765813607
1	3113	439.39298517572	0.085765813607
1	3120	439.618388563652	0.085765813607
1	3123	439.704154377259	0.150694578592
1	3130	440.655779318528	0.085765813607
1	3135	440.741545132135	0.150719449399
1	3138	440.827310945742	0.111935908897
1	3145	441.834190433442	0.085765813607
1	3148	441.919956247049	0.104519803372
1	3153	442.108486740526	0.085765813607
1	3158	442.88773607329	0.085765813607
1	3164	443.427871910978	0.085765813607
1	3169	443.854230718766	0.085765813607
1	3174	445.147918508244	0.085765813607
1	3179	445.764650244831	0.085765813607
1	3184	446.481200849567	0.085765813607
1	3189	446.756992261905	0.085765813607
1	3194	446.999591449911	0.085765813607
1	3199	447.185831568899	0.085765813607
1	3204	448.428907468272	0.085765813607
1	3211	448.598597802979	0.085765813607
1	3214	448.684363616586	0.090733637541
1	3219	449.805032796815	0.085765813607
1	3224	451.665772908717	0.085765813607
1	3229	452.287046690152	0.085765813607
1	3234	452.859264848539	0.085765813607
1	3239	454.287272391457	0.085765813607
1	3244	455.101672913607	0.085765813607
1	3249	455.31985065468	0.085765813607
1	3256	455.551285875417	0.085765813607
1	3259	455.637051689024	0.087110665812
1	3266	456.135367726672	0.085765813607
1	3269	456.221133540279	0.091373911098
1	3274	456.839554903814	0.085765813607
1	3279	457.329506610993	0.085765813607
1	3286	458.660778988068	0.085765813607
1	3289	458.746544801675	0.165017843287
1	3294	459.789764142288	0.085765813607
1	3299	460.138687717229	0.085765813607
1	3304	460.667600832965	0.085765813607
1	3309	461.467132770245	0.085765813607
1	3314	461.640702829552	0.085765813607
1	3319	463.19745801708	0.085765813607
1	3324	463.996918811507	0.085765813607
1	3329	464.15232036256	0.085765813607
1	3334	467.716065948339	0.085765813607
1	3339	468.340636791221	0.085765813607
1	3344	468.440358053421	0.085765813607
1	3349	469.494684600027	0.085765813607
1	3354	470.909241329042	0.085765813607
1	3359	471.59035510655	0.085765813607
1	3364	473.772826035031	0.085765813607
1	3369	475.497181304333	0.085765813607
1	3374	476.147171338972	0.085765813607
1	3379	476.669184112734	0.085765813607
1	3384	476.953760623477	0.085765813607
1	3391	477.197659982319	0.085765813607
1	3394	477.283425795926	0.137888099388
1	3399	477.767345781123	0.085765813607
1	3404	478.367963308227	0.085765813607
1	3409	479.562462071105	0.085765813607
1	3416	479.899781005917	0.085765813607
1	3419	479.985546819524	0.164715984201
1	3424	481.71753823209	0.085765813607
1	3429	482.153926126434	0.085765813607
1	3434	482.247187834173	0.085765813607
1	3439	482.382307125741	0.085765813607
1	3444	483.967973003345	0.085765813607
1	3451	484.814644233839	0.085765813607
1	3454	484.900410047446	0.106178636294
1	3459	486.044213558045	0.085765813607
1	3464	486.572657874664	0.085765813607
1	3469	488.849046630809	0.085765813607
1	3474	489.034296334465	0.085765813607
1	3483	490.099166002672	0.085765813607
1	3488	490.184931816279	0.117358744914
1	3491	490.270697629886	0.171956663625
1	3494	490.356463443493	0.237807901889
1	3499	490.786450702263	0.085765813607
1	3504	491.08013357306	0.085765813607
1	3509	491.246248881277	0.085765813607
1	3515	491.798370385825	0.085765813607
1	3520	492.015394315418	0.085765813607
1	3525	492.104626513154	0.085765813607
1	3532	492.258934334099	0.085765813607
1	3535	492.344700147706	0.140725719297
1	3540	492.957744090698	0.085765813607
1	3545	494.368412061317	0.085765813607
1	3550	495.147119342963	0.085765813607
1	3555	495.854899948678	0.085765813607
1	3560	496.165515937272	0.085765813607
1	3565	497.149610041604	0.085765813607
1	3570	498.081461407542	0.085765813607
1	3577	498.450636896469	0.085765813607
1	3580	498.536402710076	0.168208285184
1	3585	499.844329079192	0.085765813607
1	3592	500.050039944646	0.085765813607
1	3595	500.135805758253	0.169292852259
1	3600	502.145105837411	0.085765813607
1	3605	504.38777878441	0.085765813607
1	3610	504.505477802021	0.085765813607
1	3615	505.283075386861	0.085765813607
1	3620	507.90096404125	0.085765813607
1	3625	508.488799306173	0.085765813607
1	3630	508.998086979083	0.085765813607
1	3637	509.70415899077	0.085765813607
1	3640	509.789924804377	0.16114872148
1	3647	512.540745563046	0.085765813607
1	3652	512.626511376653	0.121741928875
1	3655	512.71227719026	0.118082465048
1	3660	513.22018789252	0.085765813607
1	3665	513.437125475276	0.085765813607
1	3670	514.606194992582	0.085765813607
1	3675	514.728248080452	0.085765813607
1	3680	514.852836136195	0.085765813607
1	3687	517.33533174712	0.085765813607
1	3690	517.421097560727	0.15571210998
1	3695	519.77019773427	0.085765813607
1	3700	520.139075978949	0.085765813607
1	3705	520.421522115474	0.085765813607
1	3710	521.076757669445	0.085765813607
1	3715	522.860212205336	0.085765813607
1	3722	523.15722752761	0.085765813607
1	3727	523.242993341217	0.159960870117
1	3730	523.328759154824	0.134017226911
1	3739	523.855352267239	0.085765813607
1	3742	523.941118080846	0.161336913157
1	3745	524.026883894453	0.23030810724
1	3750	524.224371979218	0.085765813607
1	3755	524.48814469162	0.085765813607
1	3760	526.641388998813	0.085765813607
1	3765	528.050934928023	0.085765813607
1	3772	528.418232488226	0.085765813607
1	3775	528.503998301833	0.155497079003
1	3780	529.536970506467	0.085765813607
1	3785	530.105232717711	0.085765813607
1	3790	530.25656542578	0.085765813607
1	3795	530.968036627209	0.085765813607
1	3800	531.200321250052	0.085765813607
1	3805	533.131879263595	0.085765813607
1	3810	533.325648623415	0.085765813607
1	3815	533.456024114016	0.085765813607
1	3820	535.139385584506	0.085765813607
1	3825	535.24239167009	0.085765813607
1	3830	535.828135338035	0.085765813607
1	3837	536.058346462446	0.085765813607
1	3840	536.144112276053	0.12550051378
1	3845	537.109970675687	0.085765813607
1	3852	537.747733441114	0.085765813607
1	3855	537.833499254721	0.116820003685
1	3860	538.223250660093	0.085765813607
1	3866	539.157023321475	0.085765813607
1	3871	539.916354875427	0.085765813607
1	3876	540.371578136849	0.085765813607
1	3881	540.833247398706	0.085765813607
1	3886	541.201960693618	0.085765813607
1	3891	541.980802296031	0.085765813607
1	3896	542.365862677946	0.085765813607
1	3901	546.420388671843	0.085765813607
1	3906	547.789236878009	0.085765813607
1	3911	548.43230959985	0.085765813607
1	3916	549.108327815704	0.085765813607
1	3921	549.288573174179	0.085765813607
1	3926	549.690960576755	0.085765813607
1	3931	550.147290138069	0.085765813607
1	3936	550.379518038904	0.085765813607
1	3941	550.736371831257	0.085765813607
1	3946	554.704894183192	0.085765813607
1	3951	555.32966231228	0.085765813607
1	3956	555.566755635159	0.085765813607
1	3961	556.197086774639	0.085765813607
1	3966	556.451316956811	0.085765813607
1	3971	557.38689512144	0.085765813607
1	3976	559.483102749814	0.085765813607
1	3983	561.316535451683	0.085765813607
1	3986	561.40230126529	0.097075853333
1	3991	561.747463589998	0.085765813607
1	3996	562.65215034798	0.085765813607
1	4001	563.54086134293	0.085765813607
1	4006	563.989101037757	0.085765813607
1	4011	564.912760712571	0.085765813607
1	4018	567.020692990548	0.085765813607
1	4021	567.106458804155	0.165062484641
1	4026	567.33403622263	0.085765813607
1	4031	567.563445915028	0.085765813607
1	4036	567.849500446085	0.085765813607
1	4041	568.138437591946	0.085765813607
1	4046	568.890829137639	0.085765813607
1	4051	570.496694085689	0.085765813607
1	4056	571.120944412865	0.085765813607
1	4061	572.064008866688	0.085765813607
1	4066	572.56207024636	0.085765813607
1	4071	573.584262562373	0.085765813607
1	4076	574.299259172659	0.085765813607
1	4081	574.448362172404	0.085765813607
1	4086	575.073688854666	0.085765813607
1	4091	575.762406938268	0.085765813607
1	4096	577.028945321662	0.085765813607
1	4101	577.121456350745	0.085765813607
1	4106	577.283439299069	0.085765813607
1	4111	579.021698892178	0.085765813607
1	4116	580.249727206109	0.085765813607
1	4123	581.573733546865	0.085765813607
1	4126	581.659499360472	0.154668632599
1	4131	582.09752419415	0.085765813607
1	4136	582.480553727912	0.085765813607
1	4141	582.9741169755	0.085765813607
1	4146	583.250295111726	0.085765813607
1	4151	583.429265622274	0.085765813607
1	4156	583.9151979958	0.085765813607
1	4161	584.852747339059	0.085765813607
1	4166	585.085040396311	0.085765813607
1	4171	586.294254748787	0.085765813607
1	4176	586.519363959629	0.085765813607
1	4181	586.974907236243	0.085765813607
1	4186	587.699963678563	0.085765813607
1	4191	588.11496602517	0.085765813607
1	4196	589.033938800035	0.085765813607
1	4201	589.205589256636	0.085765813607
1	4206	589.328115395135	0.085765813607
1	4211	589.492094005702	0.085765813607
1	4217	590.596374990759	0.085765813607
1	4222	591.678514426031	0.085765813607
1	4227	591.89905566172	0.085765813607
1	4232	592.373483292237	0.085765813607
1	4237	593.282529565966	0.085765813607
1	4242	593.386761542536	0.085765813607
1	4247	593.566825632417	0.085765813607
1	4254	594.255872590754	0.085765813607
1	4257	594.341638404361	0.137822184402
1	4262	594.702773467336	0.085765813607
1	4267	595.364625291357	0.085765813607
1	4272	596.219788449283	0.085765813607
1	4277	597.314764123412	0.085765813607
1	4282	599.280736765967	0.085765813607
1	4287	600.237940388614	0.085765813607
1	4292	601.217578121074	0.085765813607
1	4297	601.440069488232	0.085765813607
1	4304	601.95142227653	0.085765813607
1	4307	602.037188090137	0.164671675648
1	4312	602.612080956983	0.085765813607
1	4317	603.172529359636	0.085765813607
1	4322	603.297499632086	0.085765813607
1	4327	603.914712639004	0.085765813607
1	4332	605.245157635074	0.085765813607
1	4337	606.600177535229	0.085765813607
1	4344	608.217833431053	0.085765813607
1	4347	608.30359924466	0.152722246963
1	4352	608.886818062982	0.085765813607
1	4357	609.150615528132	0.085765813607
1	4362	611.477106249756	0.085765813607
1	4367	613.004619507637	0.085765813607
1	4372	613.317740821143	0.085765813607
1	4377	613.632075689854	0.085765813607
1	4382	614.058525125236	0.085765813607
1	4387	614.859394720826	0.085765813607
1	4392	615.291910954643	0.085765813607
1	4397	615.887281648252	0.085765813607
1	4402	616.122098676255	0.085765813607
1	4409	616.253889508038	0.085765813607
1	4412	616.339655321645	0.118466414798
1	4417	616.767357913477	0.085765813607
1	4422	617.085005213786	0.085765813607
1	4427	617.850147139586	0.085765813607
1	4432	618.13414343594	0.085765813607
1	4437	620.113270303565	0.085765813607
1	4442	620.9808596567	0.085765813607
1	4447	621.457767226883	0.085765813607
1	4452	621.694130853275	0.085765813607
1	4457	623.598049412867	0.085765813607
1	4462	625.055085137903	0.085765813607
1	4469	626.619927719812	0.085765813607
1	4472	626.705693533419	0.145608555752
1	4477	627.57636857891	0.085765813607
1	4482	628.841310919368	0.085765813607
1	4487	629.057344426011	0.085765813607
1	4492	629.333518815652	0.085765813607
1	4497	631.743369433148	0.085765813607
1	4502	632.157971398093	0.085765813607
1	4507	633.705516765059	0.085765813607
1	4512	634.212579552977	0.085765813607
1	4519	635.5070906136	0.085765813607
1	4522	635.592856427207	0.110768686244
1	4527	636.283767245185	0.085765813607
1	4532	637.072789243181	0.085765813607
1	4537	637.294372375108	0.085765813607
1	4542	637.572744319832	0.085765813607
1	4547	637.872084790216	0.085765813607
1	4552	639.672853444018	0.085765813607
1	4559	641.432701840933	0.085765813607
1	4562	641.51846765454	0.142386003656
1	4568	642.039965340826	0.085765813607
1	4575	643.130832139103	0.085765813607
1	4578	643.21659795271	0.091327420694
1	4583	644.559811059003	0.085765813607
1	4588	646.707046841962	0.085765813607
1	4593	646.795046256367	0.085765813607
1	4598	647.852106724841	0.085765813607
1	4603	648.289938493998	0.085765813607
1	4608	648.90427585402	0.085765813607
1	4613	649.589923571274	0.085765813607
1	4618	650.166847710264	0.085765813607
1	4623	650.265995933286	0.085765813607
1	4630	651.132904876862	0.085765813607
1	4633	651.218670690469	0.096267981766
1	4638	652.043983486676	0.085765813607
1	4643	652.403382301831	0.085765813607
1	4648	652.685756698143	0.085765813607
1	4653	653.692552849555	0.085765813607
1	4658	655.126882177523	0.085765813607
1	4663	655.518958702979	0.085765813607
1	4668	655.931634753153	0.085765813607
1	4673	656.460360271388	0.085765813607
1	4678	657.250704699702	0.085765813607
1	4683	658.59819111541	0.085765813607
1	4688	658.785852504534	0.085765813607
1	4693	658.899347979162	0.085765813607
1	4698	660.200234820816	0.085765813607
1	4703	662.330956437764	0.085765813607
1	4708	663.376624229043	0.085765813607
1	4713	664.565571604845	0.085765813607
1	4718	665.695121317222	0.085765813607
1	4723	667.305629284061	0.085765813607
1	4728	667.533443315037	0.085765813607
1	4733	668.283553731099	0.085765813607
1	4738	668.724532595927	0.085765813607
1	4745	670.488956804708	0.085765813607
1	4748	670.574722618315	0.141246437214
1	4753	671.232331260095	0.085765813607
1	4758	671.394745276088	0.085765813607
1	4763	671.732256852939	0.085765813607
1	4768	672.149053208896	0.085765813607
1	4773	672.685232385564	0.085765813607
1	4778	674.461860583782	0.085765813607
1	4783	675.280331768221	0.085765813607
1	4788	675.592340107782	0.085765813607
1	4793	677.069937847735	0.085765813607
1	4798	677.437710615838	0.085765813607
1	4803	678.685914555978	0.085765813607
1	4808	679.530040803991	0.085765813607
1	4813	680.044675804141	0.085765813607
1	4818	680.568119652507	0.085765813607
1	4823	680.72651890807	0.085765813607
1	4828	680.960977234964	0.085765813607
1	4833	681.09620429936	0.085765813607
1	4838	681.407461206778	0.085765813607
1	4843	681.55735224212	0.085765813607
1	4848	681.949288418352	0.085765813607
1	4853	682.05249291846	0.085765813607
1	4858	682.307519553558	0.085765813607
1	4863	683.671517291059	0.085765813607
1	4870	684.234064988049	0.085765813607
1	4873	684.319830801656	0.128150053508
1	4878	684.737943400116	0.085765813607
1	4885	685.25854718766	0.085765813607
1	4888	685.344313001267	0.136560858363
1	4893	685.880075878901	0.085765813607
1	4898	687.539775027713	0.085765813607
1	4903	687.99264085	0.085765813607
1	4908	688.510966739191	0.085765813607
1	4913	689.726797792779	0.085765813607
1	4919	690.32931001464	0.085765813607
1	4924	691.320035795276	0.085765813607
1	4929	692.083706297818	0.085765813607
1	4934	692.675971084625	0.085765813607
1	4939	693.107517213436	0.085765813607
1	4944	693.572516626803	0.085765813607
1	4949	695.013211639244	0.085765813607
1	4954	695.198110306169	0.085765813607
1	4959	696.767624074174	0.085765813607
1	4964	698.69295095333	0.085765813607
1	4973	698.90813619004	0.085765813607
1	4978	698.993902003647	0.165841954678
1	4981	699.079667817254	0.214592503666
1	4984	699.165433630861	0.24422998175
1	4989	700.596653522949	0.085765813607
1	4994	701.159333296231	0.085765813607
1	5001	701.304324074735	0.085765813607
1	5004	701.390089888342	0.170292270627
1	5009	701.820975440112	0.085765813607
1	5014	702.499788267614	0.085765813607
1	5019	702.776193393376	0.085765813607
1	5024	703.53672943671	0.085765813607
1	5029	704.516740099992	0.085765813607
1	5034	704.915514276126	0.085765813607
1	5039	705.356441864289	0.085765813607
1	5044	705.456491947726	0.085765813607
1	5049	706.25139138684	0.085765813607
1	5054	706.353163169575	0.085765813607
1	5059	706.6368671405	0.085765813607
1	5064	707.311544099732	0.085765813607
1	5069	708.052915362327	0.085765813607
1	5074	708.841655177221	0.085765813607
1	5079	709.369022264353	0.085765813607
1	5086	710.834906064399	0.085765813607
1	5089	710.920671878006	0.139483832183
1	5094	711.771916253596	0.085765813607
1	5101	712.227100782676	0.085765813607
1	5104	712.312866596283	0.156861640631
1	5111	712.549633658621	0.085765813607
1	5114	712.635399472228	0.136092230825
1	5119	713.173686479355	0.085765813607
1	5124	713.763083026134	0.085765813607
1	5129	714.634451132041	0.085765813607
1	5136	714.783937817792	0.085765813607
1	5139	714.869703631399	0.115784016257
1	5146	714.993276912759	0.085765813607
1	5149	715.079042726366	0.166588907763
1	5154	716.048771004514	0.085765813607
1	5161	716.255053141957	0.085765813607
1	5164	716.340818955564	0.133175101053
1	5171	718.387458653608	0.085765813607
1	5176	718.473224467215	0.15788488867
1	5181	718.558990280822	0.097650175112
1	5184	718.644756094429	0.102389815223
1	5189	719.326863193758	0.085765813607
1	5194	720.393542604789	0.085765813607
1	5199	720.626736768601	0.085765813607
1	5204	721.179569851273	0.085765813607
1	5209	721.445260954321	0.085765813607
1	5214	721.682393247393	0.085765813607
1	5219	722.09733376335	0.085765813607
1	5224	723.474553441604	0.085765813607
1	5229	726.559415368908	0.085765813607
1	5234	726.861767107144	0.085765813607
1	5239	727.703881742796	0.085765813607
1	5246	727.835952257609	0.085765813607
1	5249	727.921718071216	0.15010629812
1	5254	728.789005784363	0.085765813607
1	5259	728.879425499157	0.085765813607
1	5264	730.329495132952	0.085765813607
1	5270	731.617271626653	0.085765813607
1	5275	732.076973138327	0.085765813607
1	5280	732.629680924374	0.085765813607
1	5285	733.98210897948	0.085765813607
1	5290	735.409104215308	0.085765813607
1	5295	735.649148185621	0.085765813607
1	5302	735.792982997248	0.085765813607
1	5305	735.878748810855	0.160260719379
1	5310	736.108089930869	0.085765813607
1	5317	737.362464217191	0.085765813607
1	5320	737.448230030798	0.104428234134
1	5325	740.262832229062	0.085765813607
1	5330	740.733240110777	0.085765813607
1	5335	741.120526693109	0.085765813607
1	5342	741.582445386491	0.085765813607
1	5345	741.668211200098	0.17004216363
1	5350	742.391990620612	0.085765813607
1	5357	742.493304876507	0.085765813607
1	5360	742.579070690114	0.127121783906
1	5365	742.880856895346	0.085765813607
1	5370	743.712519144914	0.085765813607
1	5375	744.184535603655	0.085765813607
1	5384	744.654148159348	0.085765813607
1	5389	744.739913972955	0.171246993422
1	5392	744.825679786562	0.255153617521
1	5395	744.911445600169	0.205811409992
1	5400	746.422022580729	0.085765813607
1	5405	747.487814730422	0.085765813607
1	5414	748.273842238029	0.085765813607
1	5419	748.359608051636	0.154843763731
1	5422	748.445373865243	0.187042759891
1	5425	748.53113967885	0.183451840782
1	5430	748.734631365224	0.085765813607
1	5435	749.30954505666	0.085765813607
1	5440	749.640751207156	0.085765813607
1	5445	750.268958849601	0.085765813607
1	5452	750.821154659671	0.085765813607
1	5455	750.906920473278	0.153070875592
1	5460	751.959540245642	0.085765813607
1	5465	752.220691959232	0.085765813607
1	5470	752.895735621985	0.085765813607
1	5475	754.346879082775	0.085765813607
1	5480	754.684588690593	0.085765813607
1	5485	756.39706813081	0.085765813607
1	5492	758.323636191524	0.085765813607
1	5495	758.409402005131	0.089371785505
1	5500	758.721609705752	0.085765813607
1	5505	758.961059296102	0.085765813607
1	5510	759.053396319909	0.085765813607
1	5515	760.152091200158	0.085765813607
1	5520	760.480988608838	0.085765813607
1	5525	761.047496122254	0.085765813607
1	5530	761.68931893004	0.085765813607
1	5535	763.289310484448	0.085765813607
1	5540	764.445550810834	0.085765813607
1	5545	765.860799128383	0.085765813607
1	5552	766.06884329415	0.085765813607
1	5555	766.154609107757	0.156111317103
1	5560	766.79445090111	0.085765813607
1	5565	768.046738738549	0.085765813607
1	5570	769.216739486353	0.085765813607
1	5575	770.342786611349	0.085765813607
1	5580	770.983490702353	0.085765813607
1	5585	773.483796157031	0.085765813607
1	5590	773.879528676056	0.085765813607
1	5597	774.712309514327	0.085765813607
1	5600	774.798075327934	0.131053318021
1	5605	775.756028820644	0.085765813607
1	5610	775.917320960928	0.085765813607
1	5615	776.614326162134	0.085765813607
1	5621	777.558125239107	0.085765813607
1	5626	780.888969116269	0.085765813607
1	5631	781.665100405544	0.085765813607
1	5636	782.909423385438	0.085765813607
1	5641	783.251313915928	0.085765813607
1	5646	783.429752019592	0.085765813607
1	5651	783.695091361949	0.085765813607
1	5656	784.851162906182	0.085765813607
1	5663	785.374403981336	0.085765813607
1	5666	785.460169794943	0.142636356802
1	5671	786.296040314952	0.085765813607
1	5676	786.643098557473	0.085765813607
1	5683	786.867375888131	0.085765813607
1	5686	786.953141701738	0.135714635665
1	5691	788.723782693785	0.085765813607
1	5696	789.319804486225	0.085765813607
1	5701	790.553056048978	0.085765813607
1	5710	790.852080401861	0.085765813607
1	5713	790.937846215468	0.13176024387
1	5716	791.023612029075	0.206546950966
1	5721	791.122460690695	0.085765813607
1	5726	791.533667907697	0.085765813607
1	5731	791.655248092596	0.085765813607
1	5736	792.971434952991	0.085765813607
1	5741	793.976888293858	0.085765813607
1	5746	794.230861874665	0.085765813607
1	5751	794.84333985272	0.085765813607
1	5756	795.532124645047	0.085765813607
1	5761	795.670377989831	0.085765813607
1	5766	797.159168724504	0.085765813607
1	5771	797.559467712793	0.085765813607
1	5776	798.162586803774	0.085765813607
1	5781	800.064927139618	0.085765813607
1	5786	800.333186451189	0.085765813607
1	5793	800.790422429923	0.085765813607
1	5796	800.87618824353	0.159546398754
1	5801	801.12253937591	0.085765813607
1	5806	801.238913315994	0.085765813607
1	5811	802.10297191106	0.085765813607
1	5816	805.27546625438	0.085765813607
1	5821	807.503943149349	0.085765813607
1	5828	808.694653922778	0.085765813607
1	5831	808.780419736385	0.086952376494
1	5836	810.188710655758	0.085765813607
1	5841	811.085296519138	0.085765813607
1	5846	812.3147989384	0.085765813607
1	5851	812.846226438107	0.085765813607
1	5856	814.452440918109	0.085765813607
1	5861	815.40902635242	0.085765813607
1	5866	816.003594791992	0.085765813607
1	5871	816.124780050262	0.085765813607
1	5876	816.672251841423	0.085765813607
1	5881	816.836773881079	0.085765813607
1	5886	817.762436412645	0.085765813607
1	5891	818.080026069681	0.085765813607
1	5896	819.01669197404	0.085765813607
1	5901	820.684541837231	0.085765813607
1	5906	822.389626728409	0.085765813607
1	5911	823.863940768851	0.085765813607
1	5916	824.367107832007	0.085765813607
1	5921	827.074314960979	0.085765813607
1	5926	827.319225292509	0.085765813607
1	5931	827.626176497498	0.085765813607
1	5936	828.577940696665	0.085765813607
1	5941	829.701631349622	0.085765813607
1	5946	831.159190012342	0.085765813607
1	5953	831.633105631383	0.085765813607
1	5956	831.71887144499	0.122344168574
1	5961	832.225253888892	0.085765813607
1	5966	832.5105718704	0.085765813607
1	5972	834.966377202106	0.085765813607
1	5977	835.111425653332	0.085765813607
1	5982	835.709411125559	0.085765813607
1	5989	836.96215386225	0.085765813607
1	5992	837.047919675857	0.146866197157
1	5997	838.880021141114	0.085765813607
1	6004	840.055289144537	0.085765813607
1	6007	840.141054958144	0.087785379809
1	6012	841.057777455655	0.085765813607
1	6017	841.269218902399	0.085765813607
1	6022	842.509858257077	0.085765813607
1	6027	843.66579086024	0.085765813607
1	6032	844.471528843993	0.085765813607
1	6037	844.86138602153	0.085765813607
1	6042	844.952288515537	0.085765813607
1	6047	845.588732860513	0.085765813607
1	6052	845.800884759473	0.085765813607
1	6057	846.170090522997	0.085765813607
1	6062	846.427466546758	0.085765813607
1	6067	846.55319679103	0.085765813607
1	6072	846.994223520771	0.085765813607
1	6077	847.14687808798	0.085765813607
1	6082	847.596002067298	0.085765813607
1	6087	848.164661699807	0.085765813607
1	6092	849.151792169266	0.085765813607
1	6097	849.850918730568	0.085765813607
1	6102	850.272278497079	0.085765813607
1	6109	850.56742451657	0.085765813607
1	6112	850.653190330177	0.137871527028
1	6117	850.878374441939	0.085765813607
1	6122	851.04942931504	0.085765813607
1	6127	851.28574771983	0.085765813607
1	6132	851.468907656972	0.085765813607
1	6139	852.031869685826	0.085765813607
1	6142	852.117635499433	0.152863154007
1	6147	852.944937206231	0.085765813607
1	6152	853.136758808716	0.085765813607
1	6157	853.463698042514	0.085765813607
1	6162	853.637845345333	0.085765813607
1	6167	854.071835004444	0.085765813607
1	6174	856.475477189688	0.085765813607
1	6177	856.561243003295	0.15614084168
1	6182	858.002484373366	0.085765813607
1	6189	858.114333274565	0.085765813607
1	6192	858.200099088172	0.088861324462
1	6197	859.344210269728	0.085765813607
1	6202	861.194414715594	0.085765813607
1	6207	861.355657262583	0.085765813607
1	6212	862.163343236702	0.085765813607
1	6217	863.568379281805	0.085765813607
1	6222	864.552774575732	0.085765813607
1	6227	864.984396179321	0.085765813607
1	6232	865.320158668603	0.085765813607
1	6239	867.015242085588	0.085765813607
1	6242	867.101007899195	0.148909324235
1	6247	867.355173561408	0.085765813607
1	6252	868.930428412356	0.085765813607
1	6257	869.359712192223	0.085765813607
1	6262	869.923246569332	0.085765813607
1	6267	871.35489207239	0.085765813607
1	6272	871.562358330754	0.085765813607
1	6277	871.726282628216	0.085765813607
1	6282	875.195679105115	0.085765813607
1	6287	876.841438979094	0.085765813607
1	6292	877.652398270966	0.085765813607
1	6297	878.266162870851	0.085765813607
1	6302	878.492244929478	0.085765813607
1	6307	879.078950016018	0.085765813607
1	6312	879.705277396094	0.085765813607
1	6317	880.828839226972	0.085765813607
1	6323	881.624087733228	0.085765813607
1	6328	883.189658378198	0.085765813607
1	6333	883.570923779495	0.085765813607
1	6338	883.659454697976	0.085765813607
1	6343	884.341530555423	0.085765813607
1	6348	884.893623292471	0.085765813607
1	6355	885.618086525305	0.085765813607
1	6358	885.703852338912	0.138182717173
1	6363	888.80771473522	0.085765813607
1	6368	890.504792681831	0.085765813607
1	6373	891.899108625771	0.085765813607
1	6378	892.006434192561	0.085765813607
1	6383	892.934217021358	0.085765813607
1	6388	893.576582229766	0.085765813607
1	6393	894.533461032944	0.085765813607
1	6398	895.44049885051	0.085765813607
1	6405	897.787988090391	0.085765813607
1	6408	897.873753903998	0.140738042388
1	6415	900.353037220027	0.085765813607
1	6418	900.438803033634	0.096122410498
1	6423	900.92658191731	0.085765813607
1	6428	902.602089506887	0.085765813607
1	6433	902.906170916121	0.085765813607
1	6438	904.154114760059	0.085765813607
1	6443	904.781138986636	0.085765813607
1	6448	906.03193438021	0.085765813607
1	6453	906.493667197787	0.085765813607
1	6458	906.949165905727	0.085765813607
1	6463	907.979765460511	0.085765813607
1	6468	909.036555529368	0.085765813607
1	6473	909.177957656078	0.085765813607
1	6478	909.618624701367	0.085765813607
1	6483	910.413109007863	0.085765813607
1	6488	910.604078290935	0.085765813607
1	6495	912.310912316148	0.085765813607
1	6498	912.396678129755	0.130450520046
1	6503	915.440289997205	0.085765813607
1	6508	916.220305170879	0.085765813607
1	6513	917.051134593378	0.085765813607
1	6518	918.331439735144	0.085765813607
1	6523	920.625298171719	0.085765813607
1	6528	920.920023110228	0.085765813607
1	6533	921.317268510148	0.085765813607
1	6538	922.097383952449	0.085765813607
1	6543	924.278994644668	0.085765813607
1	6548	925.323019993415	0.085765813607
1	6553	927.027206373515	0.085765813607
1	6558	927.685816764552	0.085765813607
1	6563	927.78948650211	0.085765813607
1	6570	928.3700792572	0.085765813607
1	6575	928.455845070807	0.139366748437
1	6578	928.541610884414	0.149407649478
1	6583	928.882135393901	0.085765813607
1	6588	929.683725095522	0.085765813607
1	6593	929.770309807195	0.085765813607
1	6598	930.3069081822	0.085765813607
1	6603	933.518744890659	0.085765813607
1	6608	934.010807664217	0.085765813607
1	6613	934.759127921534	0.085765813607
1	6618	934.866424298383	0.085765813607
1	6623	936.617008503129	0.085765813607
1	6628	937.124737505043	0.085765813607
1	6633	937.744078976549	0.085765813607
1	6638	937.845350749151	0.085765813607
1	6643	937.937208319611	0.085765813607
1	6648	939.010547355343	0.085765813607
1	6653	939.678371442266	0.085765813607
1	6658	939.812019738287	0.085765813607
1	6663	939.906894217194	0.085765813607
1	6668	940.185649956171	0.085765813607
1	6674	940.377127015874	0.095833433405
1	6679	941.073118191198	0.085765813607
1	6684	942.013492411607	0.085765813607
1	6689	942.583889673484	0.085765813607
1	6694	943.895795346256	0.085765813607
1	6701	944.675047611587	0.085765813607
1	6706	944.760813425194	0.093217377635
1	6709	944.846579238801	0.120499871119
1	6714	945.310786473268	0.085765813607
1	6719	946.180005095404	0.085765813607
1	6724	946.365898965182	0.085765813607
1	6729	946.666775511114	0.085765813607
1	6734	947.024135889324	0.085765813607
1	6739	948.885062216826	0.085765813607
1	6744	950.089463511455	0.085765813607
1	6749	950.78181272916	0.085765813607
1	6754	951.963064015518	0.085765813607
1	6759	952.331537708603	0.085765813607
1	6764	952.877162410775	0.085765813607
1	6769	953.387292649984	0.085765813607
1	6774	953.572939884818	0.085765813607
1	6779	953.857620269344	0.085765813607
1	6784	954.172854239561	0.085765813607
1	6789	954.279584007764	0.085765813607
1	6794	955.662246810851	0.085765813607
1	6799	955.802942992888	0.085765813607
1	6804	955.918260984077	0.085765813607
1	6809	956.116378101942	0.085765813607
1	6816	956.729842975367	0.085765813607
1	6821	956.815608788974	0.099852851114
1	6824	956.901374602581	0.126322005135
1	6829	957.726079440374	0.085765813607
1	6834	959.023432097216	0.085765813607
1	6841	959.37162055012	0.085765813607
1	6844	959.457386363727	0.148284325179
1	6849	960.986813584091	0.085765813607
1	6854	961.526094069039	0.085765813607
1	6861	962.00653636886	0.085765813607
1	6864	962.092302182467	0.09523707311
1	6869	965.160496018281	0.085765813607
1	6876	965.919865815318	0.085765813607
1	6879	966.005631628925	0.162478841201
1	6884	966.321907470447	0.085765813607
1	6889	967.986493511654	0.085765813607
1	6894	969.18402367267	0.085765813607
1	6899	970.193643282997	0.085765813607
1	6904	970.53501824691	0.085765813607
1	6909	970.635374375491	0.085765813607
1	6914	973.323409334285	0.085765813607
1	6919	974.298596510304	0.085765813607
1	6924	975.964205060215	0.085765813607
1	6929	977.415151352776	0.085765813607
1	6934	977.954422574374	0.085765813607
1	6939	978.869330573416	0.085765813607
1	6944	979.029103188286	0.085765813607
1	6949	979.209898922798	0.085765813607
1	6954	979.395452742578	0.085765813607
1	6959	981.475915441496	0.085765813607
1	6964	983.158710274128	0.085765813607
1	6969	986.136196722972	0.085765813607
1	6974	986.401032244232	0.085765813607
1	6979	986.855937977401	0.085765813607
1	6984	987.910772390354	0.085765813607
1	6989	990.077865063311	0.085765813607
1	6994	991.454690616505	0.085765813607
1	6999	991.714403523155	0.085765813607
1	7004	994.834255862003	0.085765813607
1	7011	996.41185709315	0.085765813607
1	7014	996.497622906757	0.168315162804
1	7019	997.190821830884	0.085765813607
1	7025	998.016675517935	0.085765813607
1	7032	998.201412774966	0.085765813607
1	7035	998.287178588573	0.153038652712
1	7040	998.859720770709	0.085765813607
2	5	0.124395694007	0
2	10	0.349708354379	0
2	15	1.533696957633	0
2	20	2.035170525756	0
2	25	2.229313115974	0
2	32	2.878358967396	0
2	35	2.964124781003	0.069390647782
2	40	3.426863608557	0
2	45	3.547935828286	0
2	50	4.513859575732	0
2	57	5.013845037921	0
2	60	5.099610851528	0.07344321683
2	65	5.239408304529	0
2	70	7.332113204409	0
2	75	8.735889115723	0
2	80	9.188216145354	0
2	85	11.926033980487	0
2	90	12.71282022727	0
2	95	13.027646724585	0
2	100	13.329317251663	0
2	105	13.835477432744	0
2	110	14.154440336348	0
2	115	14.743493143583	0
2	120	16.27024184754	0
2	125	16.381989298986	0
2	130	17.304596803751	0
2	135	18.545179991535	0
2	140	19.124492718507	0
2	147	19.580905038765	0
2	150	19.666670852372	0.065577861022
2	155	20.421633054276	0
2	162	20.649753991372	0
2	165	20.735519804979	0.05686565467
2	170	21.587686514353	0
2	175	23.285009297135	0
2	180	24.959934375547	0
2	185	25.089340116585	0
2	190	25.689158512262	0
2	195	26.744610161988	0
2	202	26.884503395168	0
2	207	26.970269208775	0.044720317161
2	210	27.056035022382	0.038853120293
2	215	29.290633806007	0
2	220	30.21149198209	0
2	225	32.488343363738	0
2	232	32.693167328511	0
2	235	32.778933142118	0.076132098501
2	240	33.527790737859	0
2	245	33.63196143426	0
2	250	34.676969920847	0
2	255	35.83805219958	0
2	260	36.497842239799	0
2	265	38.250223755887	0
2	270	39.917864743575	0
2	275	41.514518871992	0
2	280	41.649672703159	0
2	285	42.413820744317	0
2	290	42.513440258734	0
2	295	43.376467360624	0
2	300	44.522215724914	0
2	305	44.821522808562	0
2	310	44.967285512399	0
2	315	45.068317389094	0
2	320	45.95983779056	0
2	325	48.011888263698	0
2	330	50.23735507441	0
2	335	50.361990192916	0
2	340	51.634492686576	0
2	345	52.722456855547	0
2	350	53.183501954224	0
2	356	53.735267784673	0
2	361	56.686874985028	0
2	366	57.061363566619	0
2	371	59.57503003068	0
2	376	61.794065155767	0
2	381	61.993558363623	0
2	386	62.48285071924	0
2	391	62.635576788648	0
2	396	63.140074544561	0
2	401	63.676708275708	0
2	408	63.829392342329	0
2	411	63.915158155936	0.020714286539
2	416	64.426580353433	0
2	421	64.855880777159	0
2	428	65.285873639175	0
2	431	65.371639452782	0.039780767638
2	436	66.766308382791	0
2	441	66.980115511232	0
2	446	67.303113828946	0
2	451	67.888460836646	0
2	456	70.715648501274	0
2	461	71.093902161318	0
2	466	71.428177254393	0
2	471	72.454983790363	0
2	476	72.600163979848	0
2	481	72.740248596711	0
2	486	73.893323729137	0
2	493	75.2919467056	0
2	496	75.377712519207	0.061500078968
2	501	77.414149913091	0
2	506	77.999055547285	0
2	511	78.561031373111	0
2	516	80.868401430227	0
2	521	81.245606390616	0
2	526	81.413318178853	0
2	531	81.82094544949	0
2	536	82.090979089323	0
2	541	84.347564804734	0
2	546	85.541910480722	0
2	553	87.073394466987	0
2	556	87.159160280594	0.083560924792
2	565	87.590589675805	0
2	568	87.676355489412	0.065457563248
2	571	87.762121303019	0.121317211498
2	576	87.882020395602	0
2	581	89.584492892301	0
2	586	91.37806984511	0
2	591	92.614480882164	0
2	596	95.309567550266	0
2	601	96.334640876296	0
2	606	96.86263781464	0
2	613	97.706847098403	0
2	618	97.79261291201	0.043271147708
2	623	97.878378725617	0.055260420696
2	626	97.964144539224	0.05499972189
2	633	98.600968853311	0
2	636	98.686734666918	0.003726109386
2	641	100.806793258983	0
2	646	101.182371776986	0
2	651	101.609080753044	0
2	656	102.580912749734	0
2	661	102.856147123927	0
2	666	103.601744694169	0
2	671	104.177721057048	0
2	676	104.546382789353	0
2	681	104.780418603308	0
2	686	105.158053915883	0
2	691	105.722217574217	0
2	696	106.194718903277	0
2	701	106.516540412938	0
2	707	107.012497656994	0
2	712	107.377089247093	0
2	717	107.987581288367	0
2	722	108.58801363524	0
2	729	108.867905520322	0
2	734	108.953671333929	0.049003697219
2	737	109.039437147536	0.050240499908
2	742	109.861490048953	0
2	747	111.373070397056	0
2	752	112.305992251166	0
2	759	112.771248967597	0
2	762	112.857014781204	0.069821305655
2	767	113.328537139587	0
2	772	113.885616676079	0
2	777	116.430981148417	0
2	782	117.684443412555	0
2	787	119.256500169701	0
2	794	120.027276649784	0
2	797	120.113042463391	0.070174346448
2	802	120.458204780455	0
2	807	121.433210920392	0
2	812	121.645001304683	0
2	817	125.469244559707	0
2	822	125.995662166847	0
2	827	126.362776558461	0
2	832	126.738156328646	0
2	837	127.489839384899	0
2	842	129.925422051004	0
2	847	130.608805212189	0
2	852	134.093114783202	0
2	857	134.946752921981	0
2	864	136.292624631744	0
2	867	136.378390445351	0.022283364827
2	872	136.671383275703	0
2	877	137.100783719687	0
2	882	137.629770655657	0
2	887	137.920582251505	0
2	892	138.279778894812	0
2	899	138.837786719306	0
2	902	138.923552532913	0.027910727996
2	907	139.245066227098	0
2	912	142.123639918658	0
2	917	142.73972772622	0
2	924	143.050409603645	0
2	927	143.136175417252	0.071971175253
2	932	143.253258926386	0
2	937	144.02824560508	0
2	942	144.725400400752	0
2	947	145.383826238961	0
2	952	146.19002097607	0
2	957	146.998443118612	0
2	962	148.065527593545	0
2	967	149.487908865428	0
2	972	150.216963996799	0
2	977	151.459481984939	0
2	982	151.569492555104	0
2	987	152.979516332336	0
2	992	153.090792150345	0
2	999	155.033221114822	0
2	1002	155.118986928429	0.028252032829
2	1007	157.319744679591	0
2	1012	157.627536770636	0
2	1017	157.99823931623	0
2	1022	158.267594327456	0
2	1027	160.306073677334	0
2	1032	161.445012603391	0
2	1039	161.694422335458	0
2	1042	161.780188149065	0.017141842719
2	1047	161.949023664487	0
2	1052	162.22909161203	0
2	1058	162.48876660918	0
2	1063	164.529703637149	0
2	1068	164.743218681641	0
2	1073	165.614014150558	0
2	1078	165.744561354626	0
2	1083	166.100829911157	0
2	1090	166.896320212796	0
2	1093	166.982086026403	0.001711007323
2	1098	167.643708489606	0
2	1103	168.288551158526	0
2	1108	168.602827777077	0
2	1113	168.74012875675	0
2	1118	168.947433682299	0
2	1123	169.223368284118	0
2	1128	170.74286805232	0
2	1133	171.259596535661	0
2	1138	171.919834233273	0
2	1143	172.392124293696	0
2	1148	172.565798622506	0
2	1153	173.63476543232	0
2	1158	175.343166570387	0
2	1163	175.66823297991	0
2	1168	175.971163833809	0
2	1173	176.065328291982	0
2	1178	176.226537253343	0
2	1187	176.332693014676	0
2	1190	176.418458828283	0.077046505591
2	1193	176.50422464189	0.110235363914
2	1198	178.351794429304	0
2	1203	181.71406717071	0
2	1208	182.054624724259	0
2	1213	182.85961495864	0
2	1218	183.688462683455	0
2	1223	184.042332015215	0
2	1230	184.673723882069	0
2	1233	184.759489695676	0.007974886818
2	1238	187.641649532191	0
2	1243	187.981350360216	0
2	1248	188.079675079236	0
2	1253	188.26574857035	0
2	1258	189.862456991087	0
2	1265	191.135855077985	0
2	1268	191.221620891592	0.062776872776
2	1275	191.809741207883	0
2	1278	191.89550702149	0.073374847156
2	1283	193.263357889124	0
2	1288	194.023259126041	0
2	1293	194.28982843248	0
2	1298	194.388252556167	0
2	1303	195.349297742055	0
2	1308	195.653428140795	0
2	1313	196.3141927917	0
2	1318	197.286711201851	0
2	1325	197.404191401425	0
2	1328	197.489957215032	0.080244526458
2	1333	197.873182660079	0
2	1338	198.475779596232	0
2	1343	200.491650380501	0
2	1348	200.673049137052	0
2	1353	200.993285617896	0
2	1358	201.346887348795	0
2	1363	201.634319612416	0
2	1368	202.742862251927	0
2	1373	205.240895462962	0
2	1378	206.118420989562	0
2	1383	208.051588408767	0
2	1388	208.288245522692	0
2	1393	208.842580067083	0
2	1398	210.306724307873	0
2	1403	210.548944407569	0
2	1409	211.119954480228	0
2	1414	212.521747745433	0
2	1419	212.907389330666	0
2	1424	213.623841795141	0
2	1429	213.713760520859	0
2	1434	214.303779939675	0
2	1439	216.588462911142	0
2	1444	216.927080108846	0
2	1449	217.190948953683	0
2	1454	218.142750920022	0
2	1459	218.569812235817	0
2	1464	218.806327447172	0
2	1469	218.94996941025	0
2	1474	219.181004473378	0
2	1479	219.426926304735	0
2	1484	219.851697056073	0
2	1491	222.130983299015	0
2	1494	222.216749112622	0.011048399537
2	1499	225.197258952878	0
2	1504	225.33018377228	0
2	1509	225.730051952068	0
2	1514	226.081111995684	0
2	1519	227.575330083513	0
2	1526	228.992847362044	0
2	1529	229.078613175651	0.002248544968
2	1534	229.322145177094	0
2	1539	229.428723775741	0
2	1544	229.745040991087	0
2	1549	231.098572719818	0
2	1554	231.477556167766	0
2	1559	232.959069437387	0
2	1564	234.505033587159	0
2	1569	234.716325160727	0
2	1574	235.403418689364	0
2	1579	235.911553201885	0
2	1586	236.425731415599	0
2	1589	236.511497229206	0.060530339139
2	1594	236.698436263818	0
2	1599	236.860623061192	0
2	1604	237.139578314444	0
2	1609	237.320958831345	0
2	1614	238.654587520704	0
2	1619	239.410238175657	0
2	1628	239.668058133321	0
2	1631	239.753823946928	0.078696572104
2	1634	239.839589760535	0.134757960469
2	1639	240.382003143601	0
2	1644	240.849617269099	0
2	1649	241.525990664486	0
2	1658	241.774504752256	0
2	1661	241.860270565863	0.010140455526
2	1664	241.94603637947	0.095094238106
2	1671	242.21692095846	0
2	1674	242.302686772067	0.016507215144
2	1679	242.841654831267	0
2	1684	243.062064997707	0
2	1691	243.673965742732	0
2	1696	243.759731556339	0.008089638125
2	1699	243.845497369946	0.05969185604
2	1704	244.628186135356	0
2	1709	247.836417490842	0
2	1714	248.541668727467	0
2	1719	248.85393808968	0
2	1724	250.105889655777	0
2	1729	251.934738280453	0
2	1734	252.335191313503	0
2	1739	252.693432127701	0
2	1744	252.876644727622	0
2	1749	253.050995303502	0
2	1754	253.865904826617	0
2	1760	254.05738188632	0.057484024874
2	1765	254.670071888115	0
2	1770	254.913125957547	0
2	1775	255.158773274761	0
2	1780	255.443305860989	0
2	1785	256.113816877347	0
2	1790	256.561429811642	0
2	1795	256.701914569585	0
2	1802	257.774987087322	0
2	1805	257.860752900929	0.037938827193
2	1810	258.087446824039	0
2	1815	259.045523520867	0
2	1820	260.008619005944	0
2	1825	260.989263618021	0
2	1830	261.287086935822	0
2	1835	263.093384202133	0
2	1840	263.586547074593	0
2	1847	264.52893722243	0
2	1850	264.614703036037	0.0239787132
2	1855	264.936232857326	0
2	1860	266.834688898999	0
2	1865	267.577182919148	0
2	1870	267.90592206502	0
2	1875	268.55981686803	0
2	1880	270.636976240183	0
2	1885	271.31019955507	0
2	1890	271.596249272164	0
2	1895	272.242857872794	0
2	1900	272.988433236835	0
2	1905	276.822520072874	0
2	1910	277.24182068469	0
2	1915	278.322332966385	0
2	1922	278.689808172497	0
2	1925	278.775573986104	0.039497982564
2	1932	279.018337504802	0
2	1935	279.104103318409	0.080544517364
2	1940	280.213958273995	0
2	1945	280.543055567909	0
2	1950	281.200070941677	0
2	1955	282.623750379643	0
2	1960	283.762544785202	0
2	1965	285.115726248714	0
2	1970	285.776142884457	0
2	1975	287.090833393608	0
2	1980	288.007870004442	0
2	1987	289.208375974685	0
2	1990	289.294141788292	0.04674414856
2	1995	291.195407593704	0
2	2000	292.18144815137	0
2	2005	292.428688196904	0
2	2010	293.825184688937	0
2	2015	293.953612093983	0
2	2022	294.39592908547	0
2	2025	294.481694899077	0.069093163863
2	2030	295.691982271302	0
2	2035	295.957108151589	0
2	2040	296.171080077138	0
2	2045	296.720251756714	0
2	2050	296.881473807495	0
2	2055	297.40538160676	0
2	2060	298.385583353397	0
2	2065	298.939695359204	0
2	2070	299.293363836438	0
2	2077	301.226288728644	0
2	2080	301.312054542251	0.025815688188
2	2087	301.981354475459	0
2	2090	302.067120289066	0.085289878634
2	2095	303.151238137618	0
2	2100	303.364566325598	0
2	2105	304.417054128121	0
2	2111	305.661343737246	0
2	2116	305.847572548253	0
2	2123	306.42626103097	0
2	2126	306.512026844577	0.078630059529
2	2131	306.77569710926	0
2	2136	306.915095396651	0
2	2141	309.235892593804	0
2	2146	310.727185461209	0
2	2153	314.265187054932	0
2	2156	314.350952868539	0.06901093248
2	2161	315.127005164763	0
2	2166	316.269105818581	0
2	2171	316.524489951231	0
2	2176	317.146803337607	0
2	2181	318.911876212377	0
2	2186	319.269778544512	0
2	2193	319.481666515276	0
2	2196	319.567432328883	0.040783136061
2	2201	320.093739084696	0
2	2206	320.8686218211	0
2	2211	322.854500939662	0
2	2216	323.168119301253	0
2	2221	323.51738437247	0
2	2226	323.643536933802	0
2	2231	324.237480486178	0
2	2236	325.568938275383	0
2	2241	326.334751145382	0
2	2246	326.989947702778	0
2	2251	328.9002952392	0
2	2256	329.161093916086	0
2	2261	329.974397643435	0
2	2266	331.006170676192	0
2	2271	331.394350282498	0
2	2276	331.579830237234	0
2	2281	331.776205187906	0
2	2286	332.070754657161	0
2	2291	332.759953353966	0
2	2296	333.105059031506	0
2	2301	333.688336746326	0
2	2306	333.880243564222	0
2	2311	334.769769956974	0
2	2316	335.407486254578	0
2	2321	335.890692003301	0
2	2326	336.011715254463	0
2	2331	336.967334711135	0
2	2336	337.071492960217	0
2	2341	337.616939221825	0
2	2346	338.024309118174	0
2	2351	338.529257625352	0
2	2356	340.097156840907	0
2	2361	341.049899162552	0
2	2366	341.38999711595	0
2	2371	341.483654240606	0
2	2376	342.748106388743	0
2	2381	343.364849727488	0
2	2386	343.685735875529	0
2	2391	345.746587986266	0
2	2396	345.941440914277	0
2	2401	347.662642548444	0
2	2406	347.926290182835	0
2	2411	348.496731871594	0
2	2416	349.034037094183	0
2	2421	351.366452408222	0
2	2426	351.785011055035	0
2	2431	352.434968456882	0
2	2436	352.615891942192	0
2	2441	353.068813105693	0
2	2446	353.210716345193	0
2	2451	356.305944628689	0
2	2456	356.398898412673	0
2	2462	356.917837599575	0
2	2467	357.494054566438	0
2	2474	357.858638903733	0
2	2477	357.94440471734	0.036515906116
2	2482	359.023761038307	0
2	2487	362.211436405864	0
2	2492	363.595029503732	0
2	2497	365.358967042665	0
2	2502	366.112543317298	0
2	2509	366.320149625566	0
2	2514	366.405915439173	0.060932852936
2	2517	366.49168125278	0.020849197269
2	2522	367.257894407077	0
2	2527	367.348956741125	0
2	2532	368.053805553577	0
2	2537	368.244819950817	0
2	2542	368.751299167012	0
2	2547	368.841891265146	0
2	2552	369.180913939017	0
2	2557	370.179927710948	0
2	2562	370.854721387242	0
2	2567	371.017105752049	0
2	2572	371.971539372536	0
2	2577	372.247927140021	0
2	2582	373.060878141974	0
2	2589	373.214181968569	0
2	2592	373.299947782176	0.009107160232
2	2597	373.917365759253	0
2	2602	374.771458690232	0
2	2607	375.803847909777	0
2	2612	377.069059886654	0
2	2617	377.404431488196	0
2	2622	377.532102798575	0
2	2629	377.994415539985	0
2	2632	378.080181353592	0.073783717611
2	2637	378.221703094324	0
2	2642	378.970301694797	0
2	2647	379.190126459066	0
2	2652	380.562978856439	0
2	2657	380.900243660104	0
2	2662	381.12217596948	0
2	2667	381.34241285698	0
2	2672	382.032515230982	0
2	2677	382.187554460666	0
2	2682	383.976183897151	0
2	2687	384.295390869241	0
2	2692	384.443261038247	0
2	2697	384.726068090432	0
2	2702	384.912308767388	0
2	2709	385.747757835701	0
2	2712	385.833523649308	0.026434955353
2	2719	386.967079933851	0
2	2722	387.052845747458	0.047360914811
2	2727	387.653226400074	0
2	2732	387.818062195197	0
2	2737	388.910180654568	0
2	2742	391.269160684478	0
2	2747	391.58074806465	0
2	2752	392.054491376809	0
2	2757	392.937808984303	0
2	2762	393.723440707941	0
2	2767	394.126388678281	0
2	2772	395.436735216644	0
2	2777	396.055090704781	0
2	2782	398.0292395871	0
2	2787	398.950941460251	0
2	2794	399.631458919469	0
2	2797	399.717224733076	0.001423017917
[...]
7	4469	626.619927719812	0
7	4472	626.705693533419	0
7	4477	627.57636857891	0
7	4482	628.841310919368	0
7	4487	629.057344426011	0
7	4492	629.333518815652	0
7	4497	631.743369433148	0
7	4502	632.157971398093	0
7	4507	633.705516765059	0
7	4512	634.212579552977	0
7	4519	635.5070906136	0
7	4522	635.592856427207	0
7	4527	636.283767245185	0
7	4532	637.072789243181	0
7	4537	637.294372375108	0
7	4542	637.572744319832	0
7	4547	637.872084790216	0
7	4552	639.672853444018	0
7	4559	641.432701840933	0
7	4562	641.51846765454	0
7	4568	642.039965340826	0
7	4575	643.130832139103	0
7	4578	643.21659795271	0
7	4583	644.559811059003	0
7	4588	646.707046841962	0
7	4593	646.795046256367	0
7	4598	647.852106724841	0
7	4603	648.289938493998	0
7	4608	648.90427585402	0
7	4613	649.589923571274	0
7	4618	650.166847710264	0
7	4623	650.265995933286	0
7	4630	651.132904876862	0
7	4633	651.218670690469	0
7	4638	652.043983486676	0
7	4643	652.403382301831	0
7	4648	652.685756698143	0
7	4653	653.692552849555	0
7	4658	655.126882177523	0
7	4663	655.518958702979	0
7	4668	655.931634753153	0
7	4673	656.460360271388	0
7	4678	657.250704699702	0
7	4683	658.59819111541	0
7	4688	658.785852504534	0
7	4693	658.899347979162	0
7	4698	660.200234820816	0
7	4703	662.330956437764	0
7	4708	663.376624229043	0
7	4713	664.565571604845	0
7	4718	665.695121317222	0
7	4723	667.305629284061	0
7	4728	667.533443315037	0
7	4733	668.283553731099	0
7	4738	668.724532595927	0
7	4745	670.488956804708	0
7	4748	670.574722618315	0
7	4753	671.232331260095	0
7	4758	671.394745276088	0
7	4763	671.732256852939	0
7	4768	672.149053208896	0
7	4773	672.685232385564	0
7	4778	674.461860583782	0
7	4783	675.280331768221	0
7	4788	675.592340107782	0
7	4793	677.069937847735	0
7	4798	677.437710615838	0
7	4803	678.685914555978	0
7	4808	679.530040803991	0
7	4813	680.044675804141	0
7	4818	680.568119652507	0
7	4823	680.72651890807	0
7	4828	680.960977234964	0
7	4833	681.09620429936	0
7	4838	681.407461206778	0
7	4843	681.55735224212	0
7	4848	681.949288418352	0
7	4853	682.05249291846	0
7	4858	682.307519553558	0
7	4863	683.671517291059	0
7	4870	684.234064988049	0
7	4873	684.319830801656	0
7	4878	684.737943400116	0
7	4885	685.25854718766	0
7	4888	685.344313001267	0
7	4893	685.880075878901	0
7	4898	687.539775027713	0
7	4903	687.99264085	0
7	4908	688.510966739191	0
7	4913	689.726797792779	0
7	4919	690.32931001464	0
7	4924	691.320035795276	0
7	4929	692.083706297818	0
7	4934	692.675971084625	0
7	4939	693.107517213436	0
7	4944	693.572516626803	0
7	4949	695.013211639244	0
7	4954	695.198110306169	0
7	4959	696.767624074174	0
7	4964	698.69295095333	0
7	4973	698.90813619004	0
7	4978	698.993902003647	0
7	4981	699.079667817254	0
7	4984	699.165433630861	0
7	4989	700.596653522949	0
7	4994	701.159333296231	0
7	5001	701.304324074735	0
7	5004	701.390089888342	0
7	5009	701.820975440112	0
7	5014	702.499788267614	0
7	5019	702.776193393376	0
7	5024	703.53672943671	0
7	5029	704.516740099992	0
7	5034	704.915514276126	0
7	5039	705.356441864289	0
7	5044	705.456491947726	0
7	5049	706.25139138684	0
7	5054	706.353163169575	0
7	5059	706.6368671405	0
7	5064	707.311544099732	0
7	5069	708.052915362327	0
7	5074	708.841655177221	0
7	5079	709.369022264353	0
7	5086	710.834906064399	0
7	5089	710.920671878006	0
7	5094	711.771916253596	0
7	5101	712.227100782676	0
7	5104	712.312866596283	0
7	5111	712.549633658621	0
7	5114	712.635399472228	0
7	5119	713.173686479355	0
7	5124	713.763083026134	0
7	5129	714.634451132041	0
7	5136	714.783937817792	0
7	5139	714.869703631399	0
7	5146	714.993276912759	0
7	5149	715.079042726366	0
7	5154	716.048771004514	0
7	5161	716.255053141957	0
7	5164	716.340818955564	0
7	5171	718.387458653608	0
7	5176	718.473224467215	0
7	5181	718.558990280822	0
7	5184	718.644756094429	0
7	5189	719.326863193758	0
7	5194	720.393542604789	0
7	5199	720.626736768601	0
7	5204	721.179569851273	0
7	5209	721.445260954321	0
7	5214	721.682393247393	0
7	5219	722.09733376335	0
7	5224	723.474553441604	0
7	5229	726.559415368908	0
7	5234	726.861767107144	0
7	5239	727.703881742796	0
7	5246	727.835952257609	0
7	5249	727.921718071216	0
7	5254	728.789005784363	0
7	5259	728.879425499157	0
7	5264	730.329495132952	0
7	5270	731.617271626653	0
7	5275	732.076973138327	0
7	5280	732.629680924374	0
7	5285	733.98210897948	0
7	5290	735.409104215308	0
7	5295	735.649148185621	0
7	5302	735.792982997248	0
7	5305	735.878748810855	0
7	5310	736.108089930869	0
7	5317	737.362464217191	0
7	5320	737.448230030798	0
7	5325	740.262832229062	0
7	5330	740.733240110777	0
7	5335	741.120526693109	0
7	5342	741.582445386491	0
7	5345	741.668211200098	0
7	5350	742.391990620612	0
7	5357	742.493304876507	0
7	5360	742.579070690114	0
7	5365	742.880856895346	0
7	5370	743.712519144914	0
7	5375	744.184535603655	0
7	5384	744.654148159348	0
7	5389	744.739913972955	0
7	5392	744.825679786562	0
7	5395	744.911445600169	0
7	5400	746.422022580729	0
7	5405	747.487814730422	0
7	5414	748.273842238029	0
7	5419	748.359608051636	0
7	5422	748.445373865243	0
7	5425	748.53113967885	0
7	5430	748.734631365224	0
7	5435	749.30954505666	0
7	5440	749.640751207156	0
7	5445	750.268958849601	0
7	5452	750.821154659671	0
7	5455	750.906920473278	0
7	5460	751.959540245642	0
7	5465	752.220691959232	0
7	5470	752.895735621985	0
7	5475	754.346879082775	0
7	5480	754.684588690593	0
7	5485	756.39706813081	0
7	5492	758.323636191524	0
7	5495	758.409402005131	0
7	5500	758.721609705752	0
7	5505	758.961059296102	0
7	5510	759.053396319909	0
7	5515	760.152091200158	0
7	5520	760.480988608838	0
7	5525	761.047496122254	0
7	5530	761.68931893004	0
7	5535	763.289310484448	0
7	5540	764.445550810834	0
7	5545	765.860799128383	0
7	5552	766.06884329415	0
7	5555	766.154609107757	0
7	5560	766.79445090111	0
7	5565	768.046738738549	0
7	5570	769.216739486353	0
7	5575	770.342786611349	0
7	5580	770.983490702353	0
7	5585	773.483796157031	0
7	5590	773.879528676056	0
7	5597	774.712309514327	0
7	5600	774.798075327934	0
7	5605	775.756028820644	0
7	5610	775.917320960928	0
7	5615	776.614326162134	0
7	5621	777.558125239107	0
7	5626	780.888969116269	0
7	5631	781.665100405544	0
7	5636	782.909423385438	0
7	5641	783.251313915928	0
7	5646	783.429752019592	0
7	5651	783.695091361949	0
7	5656	784.851162906182	0
7	5663	785.374403981336	0
7	5666	785.460169794943	0
7	5671	786.296040314952	0
7	5676	786.643098557473	0
7	5683	786.867375888131	0
7	5686	786.953141701738	0
7	5691	788.723782693785	0
7	5696	789.319804486225	0
7	5701	790.553056048978	0
7	5710	790.852080401861	0
7	5713	790.937846215468	0
7	5716	791.023612029075	0
7	5721	791.122460690695	0
7	5726	791.533667907697	0
7	5731	791.655248092596	0
7	5736	792.971434952991	0
7	5741	793.976888293858	0
7	5746	794.230861874665	0
7	5751	794.84333985272	0
7	5756	795.532124645047	0
7	5761	795.670377989831	0
7	5766	797.159168724504	0
7	5771	797.559467712793	0
7	5776	798.162586803774	0
7	5781	800.064927139618	0
7	5786	800.333186451189	0
7	5793	800.790422429923	0
7	5796	800.87618824353	0
7	5801	801.12253937591	0
7	5806	801.238913315994	0
7	5811	802.10297191106	0
7	5816	805.27546625438	0
7	5821	807.503943149349	0
7	5828	808.694653922778	0
7	5831	808.780419736385	0
7	5836	810.188710655758	0
7	5841	811.085296519138	0
7	5846	812.3147989384	0
7	5851	812.846226438107	0
7	5856	814.452440918109	0
7	5861	815.40902635242	0
7	5866	816.003594791992	0
7	5871	816.124780050262	0
7	5876	816.672251841423	0
7	5881	816.836773881079	0
7	5886	817.762436412645	0
7	5891	818.080026069681	0
7	5896	819.01669197404	0
7	5901	820.684541837231	0
7	5906	822.389626728409	0
7	5911	823.863940768851	0
7	5916	824.367107832007	0
7	5921	827.074314960979	0
7	5926	827.319225292509	0
7	5931	827.626176497498	0
7	5936	828.577940696665	0
7	5941	829.701631349622	0
7	5946	831.159190012342	0
7	5953	831.633105631383	0
7	5956	831.71887144499	0
7	5961	832.225253888892	0
7	5966	832.5105718704	0
7	5972	834.966377202106	0
7	5977	835.111425653332	0
7	5982	835.709411125559	0
7	5989	836.96215386225	0
7	5992	837.047919675857	0
7	5997	838.880021141114	0
7	6004	840.055289144537	0
7	6007	840.141054958144	0
7	6012	841.057777455655	0
7	6017	841.269218902399	0
7	6022	842.509858257077	0
7	6027	843.66579086024	0
7	6032	844.471528843993	0
7	6037	844.86138602153	0
7	6042	844.952288515537	0
7	6047	845.588732860513	0
7	6052	845.800884759473	0
7	6057	846.170090522997	0
7	6062	846.427466546758	0
7	6067	846.55319679103	0
7	6072	846.994223520771	0
7	6077	847.14687808798	0
7	6082	847.596002067298	0
7	6087	848.164661699807	0
7	6092	849.151792169266	0
7	6097	849.850918730568	0
7	6102	850.272278497079	0
7	6109	850.56742451657	0
7	6112	850.653190330177	0
7	6117	850.878374441939	0
7	6122	851.04942931504	0
7	6127	851.28574771983	0
7	6132	851.468907656972	0
7	6139	852.031869685826	0
7	6142	852.117635499433	0
7	6147	852.944937206231	0
7	6152	853.136758808716	0
7	6157	853.463698042514	0
7	6162	853.637845345333	0
7	6167	854.071835004444	0
7	6174	856.475477189688	0
7	6177	856.561243003295	0
7	6182	858.002484373366	0
7	6189	858.114333274565	0
7	6192	858.200099088172	0
7	6197	859.344210269728	0
7	6202	861.194414715594	0
7	6207	861.355657262583	0
7	6212	862.163343236702	0
7	6217	863.568379281805	0
7	6222	864.552774575732	0
7	6227	864.984396179321	0
7	6232	865.320158668603	0
7	6239	867.015242085588	0
7	6242	867.101007899195	0
7	6247	867.355173561408	0
7	6252	868.930428412356	0
7	6257	869.359712192223	0
7	6262	869.923246569332	0
7	6267	871.35489207239	0
7	6272	871.562358330754	0
7	6277	871.726282628216	0
7	6282	875.195679105115	0
7	6287	876.841438979094	0
7	6292	877.652398270966	0
7	6297	878.266162870851	0
7	6302	878.492244929478	0
7	6307	879.078950016018	0
7	6312	879.705277396094	0
7	6317	880.828839226972	0
7	6323	881.624087733228	0
7	6328	883.189658378198	0
7	6333	883.570923779495	0
7	6338	883.659454697976	0
7	6343	884.341530555423	0
7	6348	884.893623292471	0
7	6355	885.618086525305	0
7	6358	885.703852338912	0
7	6363	888.80771473522	0
7	6368	890.504792681831	0
7	6373	891.899108625771	0
7	6378	892.006434192561	0
7	6383	892.934217021358	0
7	6388	893.576582229766	0
7	6393	894.533461032944	0
7	6398	895.44049885051	0
7	6405	897.787988090391	0
7	6408	897.873753903998	0
7	6415	900.353037220027	0
7	6418	900.438803033634	0
7	6423	900.92658191731	0
7	6428	902.602089506887	0
7	6433	902.906170916121	0
7	6438	904.154114760059	0
7	6443	904.781138986636	0
7	6448	906.03193438021	0
7	6453	906.493667197787	0
7	6458	906.949165905727	0
7	6463	907.979765460511	0
7	6468	909.036555529368	0
7	6473	909.177957656078	0
7	6478	909.618624701367	0
7	6483	910.413109007863	0
7	6488	910.604078290935	0
7	6495	912.310912316148	0
7	6498	912.396678129755	0
7	6503	915.440289997205	0
7	6508	916.220305170879	0
7	6513	917.051134593378	0
7	6518	918.331439735144	0
7	6523	920.625298171719	0
7	6528	920.920023110228	0
7	6533	921.317268510148	0
7	6538	922.097383952449	0
7	6543	924.278994644668	0
7	6548	925.323019993415	0
7	6553	927.027206373515	0
7	6558	927.685816764552	0
7	6563	927.78948650211	0
7	6570	928.3700792572	0
7	6575	928.455845070807	0
7	6578	928.541610884414	0
7	6583	928.882135393901	0
7	6588	929.683725095522	0
7	6593	929.770309807195	0
7	6598	930.3069081822	0
7	6603	933.518744890659	0
7	6608	934.010807664217	0
7	6613	934.759127921534	0
7	6618	934.866424298383	0
7	6623	936.617008503129	0
7	6628	937.124737505043	0
7	6633	937.744078976549	0
7	6638	937.845350749151	0
7	6643	937.937208319611	0
7	6648	939.010547355343	0
7	6653	939.678371442266	0
7	6658	939.812019738287	0
7	6663	939.906894217194	0
7	6668	940.185649956171	0
7	6674	940.377127015874	0
7	6679	941.073118191198	0
7	6684	942.013492411607	0
7	6689	942.583889673484	0
7	6694	943.895795346256	0
7	6701	944.675047611587	0
7	6706	944.760813425194	0
7	6709	944.846579238801	0
7	6714	945.310786473268	0
7	6719	946.180005095404	0
7	6724	946.365898965182	0
7	6729	946.666775511114	0
7	6734	947.024135889324	0
7	6739	948.885062216826	0
7	6744	950.089463511455	0
7	6749	950.78181272916	0
7	6754	951.963064015518	0
7	6759	952.331537708603	0
7	6764	952.877162410775	0
7	6769	953.387292649984	0
7	6774	953.572939884818	0
7	6779	953.857620269344	0
7	6784	954.172854239561	0
7	6789	954.279584007764	0
7	6794	955.662246810851	0
7	6799	955.802942992888	0
7	6804	955.918260984077	0
7	6809	956.116378101942	0
7	6816	956.729842975367	0
7	6821	956.815608788974	0
7	6824	956.901374602581	0
7	6829	957.726079440374	0
7	6834	959.023432097216	0
7	6841	959.37162055012	0
7	6844	959.457386363727	0
7	6849	960.986813584091	0
7	6854	961.526094069039	0
7	6861	962.00653636886	0
7	6864	962.092302182467	0
7	6869	965.160496018281	0
7	6876	965.919865815318	0
7	6879	966.005631628925	0
7	6884	966.321907470447	0
7	6889	967.986493511654	0
7	6894	969.18402367267	0
7	6899	970.193643282997	0
7	6904	970.53501824691	0
7	6909	970.635374375491	0
7	6914	973.323409334285	0
7	6919	974.298596510304	0
7	6924	975.964205060215	0
7	6929	977.415151352776	0
7	6934	977.954422574374	0
7	6939	978.869330573416	0
7	6944	979.029103188286	0
7	6949	979.209898922798	0
7	6954	979.395452742578	0
7	6959	981.475915441496	0
7	6964	983.158710274128	0
7	6969	986.136196722972	0
7	6974	986.401032244232	0
7	6979	986.855937977401	0
7	6984	987.910772390354	0
7	6989	990.077865063311	0
7	6994	991.454690616505	0
7	6999	991.714403523155	0
7	7004	994.834255862003	0
7	7011	996.41185709315	0
7	7014	996.497622906757	0
7	7019	997.190821830884	0
7	7025	998.016675517935	0
7	7032	998.201412774966	0
7	7035	998.287178588573	0
7	7040	998.859720770709	0
8	31	2.878358967396	0.069390647782
8	56	5.013845037921	0.07344321683
8	146	19.580905038765	0.065577861022
8	161	20.649753991372	0.05686565467
8	201	26.884503395168	0.044720317161
8	206	26.970269208775	0.038853120293
8	231	32.693167328511	0.076132098501
8	407	63.829392342329	0.020714286539
8	427	65.285873639175	0.039780767638
8	492	75.2919467056	0.061500078968
8	552	87.073394466987	0.083560924792
8	564	87.590589675805	0.065457563248
8	567	87.676355489412	0.121317211498
8	612	97.706847098403	0.043271147708
8	617	97.79261291201	0.055260420696
8	622	97.878378725617	0.05499972189
8	632	98.600968853311	0.003726109386
8	728	108.867905520322	0.049003697219
8	733	108.953671333929	0.050240499908
8	758	112.771248967597	0.069821305655
8	793	120.027276649784	0.070174346448
8	863	136.292624631744	0.022283364827
8	898	138.837786719306	0.027910727996
8	923	143.050409603645	0.071971175253
8	998	155.033221114822	0.028252032829
8	1038	161.694422335458	0.017141842719
8	1089	166.896320212796	0.001711007323
8	1186	176.332693014676	0.077046505591
8	1189	176.418458828283	0.110235363914
8	1229	184.673723882069	0.007974886818
8	1264	191.135855077985	0.062776872776
8	1274	191.809741207883	0.073374847156
8	1324	197.404191401425	0.080244526458
8	1490	222.130983299015	0.011048399537
8	1525	228.992847362044	0.002248544968
8	1585	236.425731415599	0.060530339139
8	1627	239.668058133321	0.078696572104
8	1630	239.753823946928	0.134757960469
8	1657	241.774504752256	0.010140455526
8	1660	241.860270565863	0.095094238106
8	1670	242.21692095846	0.016507215144
8	1690	243.673965742732	0.008089638125
8	1695	243.759731556339	0.05969185604
8	1757	253.971616072713	0.057484024874
8	1801	257.774987087322	0.037938827193
8	1846	264.52893722243	0.0239787132
8	1921	278.689808172497	0.039497982564
8	1931	279.018337504802	0.080544517364
8	1986	289.208375974685	0.04674414856
8	2021	294.39592908547	0.069093163863
8	2076	301.226288728644	0.025815688188
8	2086	301.981354475459	0.085289878634
8	2122	306.42626103097	0.078630059529
8	2152	314.265187054932	0.06901093248
8	2192	319.481666515276	0.040783136061
8	2473	357.858638903733	0.036515906116
8	2508	366.320149625566	0.060932852936
8	2513	366.405915439173	0.020849197269
8	2588	373.214181968569	0.009107160232
8	2628	377.994415539985	0.073783717611
8	2708	385.747757835701	0.026434955353
8	2718	386.967079933851	0.047360914811
8	2793	399.631458919469	0.001423017917
8	2810	400.509177135673	0.083347503582
8	2874	406.833159756155	0.058025702083
8	2889	408.116075209224	0.048323144602
8	2904	411.368914895871	0.026545806441
8	2964	420.504818501566	0.035441263024
8	3001	423.957704169373	0.061530706416
8	3004	424.04346998298	0.089563871305
8	3019	426.895714294143	0.066226614546
8	3029	427.178189227211	0.017743634958
8	3074	432.940654141264	0.063497869157
8	3119	439.618388563652	0.064928764985
8	3129	440.655779318528	0.064953635792
8	3134	440.741545132135	0.02617009529
8	3144	441.834190433442	0.018753989765
8	3210	448.598597802979	0.004967823934
8	3255	455.551285875417	0.001344852205
8	3265	456.135367726672	0.005608097491
8	3285	458.660778988068	0.07925202968
8	3390	477.197659982319	0.052122285781
8	3415	479.899781005917	0.078950170594
8	3450	484.814644233839	0.020412822687
8	3482	490.099166002672	0.031592931307
8	3487	490.184931816279	0.086190850018
8	3490	490.270697629886	0.152042088282
8	3531	492.258934334099	0.05495990569
8	3576	498.450636896469	0.082442471577
8	3591	500.050039944646	0.083527038652
8	3636	509.70415899077	0.075382907873
8	3646	512.540745563046	0.035976115268
8	3651	512.626511376653	0.032316651441
8	3686	517.33533174712	0.069946296373
8	3721	523.15722752761	0.07419505651
8	3726	523.242993341217	0.048251413304
8	3738	523.855352267239	0.07557109955
8	3741	523.941118080846	0.144542293633
8	3771	528.418232488226	0.069731265396
8	3836	536.058346462446	0.039734700173
8	3851	537.747733441114	0.031054190078
8	3982	561.316535451683	0.011310039726
8	4017	567.020692990548	0.079296671034
8	4122	581.573733546865	0.068902818992
8	4253	594.255872590754	0.052056370795
8	4303	601.95142227653	0.078905862041
8	4343	608.217833431053	0.066956433356
8	4408	616.253889508038	0.032700601191
8	4468	626.619927719812	0.059842742145
8	4518	635.5070906136	0.025002872637
8	4558	641.432701840933	0.056620190049
8	4574	643.130832139103	0.005561607087
8	4629	651.132904876862	0.010502168159
8	4744	670.488956804708	0.055480623607
8	4869	684.234064988049	0.042384239901
8	4884	685.25854718766	0.050795044756
8	4972	698.90813619004	0.080076141071
8	4977	698.993902003647	0.128826690059
8	4980	699.079667817254	0.158464168143
8	5000	701.304324074735	0.08452645702
8	5085	710.834906064399	0.053718018576
8	5100	712.227100782676	0.071095827024
8	5110	712.549633658621	0.050326417218
8	5135	714.783937817792	0.03001820265
8	5145	714.993276912759	0.080823094156
8	5160	716.255053141957	0.047409287446
8	5170	718.387458653608	0.072119075063
8	5175	718.473224467215	0.011884361505
8	5180	718.558990280822	0.016624001616
8	5245	727.835952257609	0.064340484513
8	5301	735.792982997248	0.074494905772
8	5316	737.362464217191	0.018662420527
8	5341	741.582445386491	0.084276350023
8	5356	742.493304876507	0.041355970299
8	5383	744.654148159348	0.085481179815
8	5388	744.739913972955	0.169387803914
8	5391	744.825679786562	0.120045596385
8	5413	748.273842238029	0.069077950124
8	5418	748.359608051636	0.101276946284
8	5421	748.445373865243	0.097686027175
8	5451	750.821154659671	0.067305061985
8	5491	758.323636191524	0.003605971898
8	5551	766.06884329415	0.070345503496
8	5596	774.712309514327	0.045287504414
8	5662	785.374403981336	0.056870543195
8	5682	786.867375888131	0.049948822058
8	5709	790.852080401861	0.045994430263
8	5712	790.937846215468	0.120781137359
8	5792	800.790422429923	0.073780585147
8	5827	808.694653922778	0.001186562887
8	5952	831.633105631383	0.036578354967
8	5988	836.96215386225	0.06110038355
8	6003	840.055289144537	0.002019566202
8	6108	850.56742451657	0.052105713421
8	6138	852.031869685826	0.0670973404
8	6173	856.475477189688	0.070375028073
8	6188	858.114333274565	0.003095510855
8	6238	867.015242085588	0.063143510628
8	6354	885.618086525305	0.052416903566
8	6404	897.787988090391	0.054972228781
8	6414	900.353037220027	0.010356596891
8	6494	912.310912316148	0.044684706439
8	6569	928.3700792572	0.05360093483
8	6574	928.455845070807	0.063641835871
8	6671	940.291361202267	0.010067619798
8	6700	944.675047611587	0.007451564028
8	6705	944.760813425194	0.034734057512
8	6815	956.729842975367	0.014087037507
8	6820	956.815608788974	0.040556191528
8	6840	959.37162055012	0.062518511572
8	6860	962.00653636886	0.009471259503
8	6875	965.919865815318	0.076713027594
8	7010	996.41185709315	0.082549349197
8	7031	998.201412774966	0.067272839105

