version 2
run General-368-20240201-11:04:29-40057
attr configname General
attr datetime 20240201-11:04:29
attr experiment General
attr inifile main.ini
attr iterationvars "$0=1.0, $1=1.7, $2=30"
attr iterationvarsf 1.0,1.7,30-
attr measurement "$0=1.0, $1=1.7, $2=30"
attr network Rete
attr processid 40057
attr repetition 8
attr replication #8
attr resultdir results
attr runnumber 368
attr seedset 368
param Rete.lambda 1.0
param Rete.a 0.3s
param Rete.b 1.7s
param Rete.c 0.1s
param Rete.d 0.3s
param Rete.mu 3.0
param Rete.source2.interArrivalTime exponential(1s/lambda)
param Rete.source2.jobServiceTime exponential(1s/mu)
param Rete.source2.deadline uniform(a,b)
param Rete.server2.j 30
param Rete.server2.V uniform(c,d)

vector 0 Rete.passiveQueue queueLength:vector ETV
attr interpolationmode sample-hold
attr title "queue length, vector"
vector 1 Rete.sink lifeTime:vector ETV
attr interpolationmode none
attr title "lifetime of arrived jobs, vector"
attr unit s
vector 2 Rete.sink totalQueueingTime:vector ETV
attr interpolationmode none
attr title "the total time spent in queues by arrived jobs, vector"
attr unit s
vector 3 Rete.sink queuesVisited:vector ETV
attr interpolationmode none
attr title "the total number of queues visited by arrived jobs, vector"
vector 4 Rete.sink totalServiceTime:vector ETV
attr interpolationmode none
attr title "the total time spent  by arrived jobs, vector"
attr unit s
vector 5 Rete.sink totalDelayTime:vector ETV
attr interpolationmode none
attr title "the total time spent in delay nodes by arrived jobs, vector"
attr unit s
vector 6 Rete.sink delaysVisited:vector ETV
attr interpolationmode none
attr title "the total number of delays visited by arrived jobs, vector"
vector 7 Rete.sink generation:vector ETV
attr interpolationmode none
attr title "the generation of the arrived jobs, vector"
vector 8 Rete.passiveQueue queueingTime:vector ETV
attr interpolationmode none
attr title "queueing time at dequeue, vector"
attr unit s
0	0	0	0
0	1058	236.719139046578	1
0	1059	236.966793828767	0
0	1209	261.468844840904	1
0	1210	261.543660673714	0
0	1511	326.067303338285	1
0	1513	326.080426323803	2
0	1514	326.342443742725	1
0	1516	326.342469080629	0
0	1813	386.123180966948	1
0	1814	386.130963094543	0
0	1964	418.609241401199	1
0	1965	418.876834782327	0
0	2115	446.348410362132	1
0	2116	446.497691181424	0
0	2266	486.191291256429	1
0	2267	486.332493958896	0
0	2568	539.620990670624	1
0	2569	539.757343905126	0
0	3021	645.58305746537	1
0	3022	645.796573364799	0
0	3172	682.757404696859	1
0	3173	683.050951074733	0
0	3474	742.850194301983	1
0	3475	742.984861731137	0
1	5	0.536441138662	2.5337904e-05
1	10	2.097203133648	2.5337904e-05
1	15	2.934555120391	2.5337904e-05
1	20	5.222048580665	2.5337904e-05
1	25	7.974941057004	2.5337904e-05
1	30	8.179813149171	2.5337904e-05
1	35	8.501138516409	2.5337904e-05
1	40	9.684960212456	2.5337904e-05
1	45	9.827057052548	2.5337904e-05
1	50	9.916077322719	2.5337904e-05
1	55	11.46405510966	2.5337904e-05
1	60	11.894949371708	2.5337904e-05
1	65	14.276832165513	2.5337904e-05
1	70	14.336583184743	2.5337904e-05
1	75	15.409190725854	2.5337904e-05
1	80	17.026607522675	2.5337904e-05
1	85	18.45574889188	2.5337904e-05
1	90	21.586592094353	2.5337904e-05
1	95	23.772071044116	2.5337904e-05
1	100	25.179081563235	2.5337904e-05
1	105	25.970402212827	2.5337904e-05
1	110	27.794637414123	2.5337904e-05
1	115	28.592557090033	2.5337904e-05
1	120	30.247981855859	2.5337904e-05
1	125	32.042638883013	2.5337904e-05
1	130	32.2165846121	2.5337904e-05
1	135	32.904070911694	2.5337904e-05
1	140	33.844518139103	2.5337904e-05
1	145	34.551897039022	2.5337904e-05
1	150	35.774815084439	2.5337904e-05
1	156	37.01629191929	2.5337904e-05
1	161	37.371700445514	2.5337904e-05
1	166	38.247243624576	2.5337904e-05
1	171	38.620752119743	2.5337904e-05
1	176	40.237210464126	2.5337904e-05
1	181	41.570855988842	2.5337904e-05
1	186	42.900948111112	2.5337904e-05
1	191	44.432303340966	2.5337904e-05
1	196	44.624719091176	2.5337904e-05
1	201	44.642096709974	2.5337904e-05
1	206	47.128212471239	2.5337904e-05
1	211	48.00446669719	2.5337904e-05
1	216	48.390106206195	2.5337904e-05
1	221	49.384038266297	2.5337904e-05
1	226	50.430478846301	2.5337904e-05
1	231	52.596844189262	2.5337904e-05
1	236	55.278143019813	2.5337904e-05
1	241	55.608696193671	2.5337904e-05
1	246	58.073448025038	2.5337904e-05
1	251	59.167069589829	2.5337904e-05
1	256	59.231207265143	2.5337904e-05
1	261	60.624114878417	2.5337904e-05
1	266	60.791225183482	2.5337904e-05
1	271	63.907856891413	2.5337904e-05
1	276	64.982596864179	2.5337904e-05
1	281	67.033293278204	2.5337904e-05
1	286	67.102187007152	2.5337904e-05
1	291	71.770190077775	2.5337904e-05
1	296	72.443856117722	2.5337904e-05
1	301	73.516617953453	2.5337904e-05
1	307	76.178776697297	2.5337904e-05
1	312	76.868997238488	2.5337904e-05
1	317	77.252118426262	2.5337904e-05
1	322	77.374318984599	2.5337904e-05
1	327	77.848362680269	2.5337904e-05
1	332	77.975564821347	2.5337904e-05
1	337	79.142866125041	2.5337904e-05
1	342	81.785744806973	2.5337904e-05
1	347	82.740421146009	2.5337904e-05
1	352	82.781828393617	2.5337904e-05
1	357	83.073757924351	2.5337904e-05
1	362	83.380463667354	2.5337904e-05
1	367	83.675713842278	2.5337904e-05
1	372	86.952818955846	2.5337904e-05
1	377	87.304288921316	2.5337904e-05
1	382	88.761043480966	2.5337904e-05
1	387	90.31161131032	2.5337904e-05
1	392	90.317106512927	2.5337904e-05
1	397	91.721502016676	2.5337904e-05
1	402	92.153158849032	2.5337904e-05
1	407	94.852987159465	2.5337904e-05
1	412	98.075389144136	2.5337904e-05
1	417	98.646999985462	2.5337904e-05
1	422	101.030125678729	2.5337904e-05
1	427	101.522180990821	2.5337904e-05
1	432	101.587836839138	2.5337904e-05
1	437	103.642664667173	2.5337904e-05
1	442	105.72945302442	2.5337904e-05
1	447	106.039160445821	2.5337904e-05
1	452	106.264962458232	2.5337904e-05
1	458	108.993625814903	2.5337904e-05
1	463	109.350423051701	2.5337904e-05
1	468	111.030409116131	2.5337904e-05
1	473	112.140157794898	2.5337904e-05
1	478	112.46552616862	2.5337904e-05
1	483	112.796296017915	2.5337904e-05
1	488	112.990153145265	2.5337904e-05
1	493	113.412074345864	2.5337904e-05
1	498	117.301249282787	2.5337904e-05
1	503	117.556759759775	2.5337904e-05
1	508	119.114935739903	2.5337904e-05
1	513	119.191392029213	2.5337904e-05
1	518	119.490434836315	2.5337904e-05
1	523	120.605015673687	2.5337904e-05
1	528	121.989765629285	2.5337904e-05
1	533	122.371384755792	2.5337904e-05
1	538	127.796948515024	2.5337904e-05
1	543	129.186893044499	2.5337904e-05
1	548	129.509772165458	2.5337904e-05
1	553	129.648067962199	2.5337904e-05
1	558	129.882735070571	2.5337904e-05
1	563	130.119395670881	2.5337904e-05
1	568	131.698997354351	2.5337904e-05
1	573	132.297064945326	2.5337904e-05
1	578	132.722808498339	2.5337904e-05
1	583	132.74897333355	2.5337904e-05
1	588	136.550645793068	2.5337904e-05
1	593	138.498168537511	2.5337904e-05
1	598	138.661990914171	2.5337904e-05
1	603	138.761376678894	2.5337904e-05
1	609	139.689245564985	2.5337904e-05
1	614	139.757460136192	2.5337904e-05
1	619	141.59278318598	2.5337904e-05
1	624	143.213691613936	2.5337904e-05
1	629	144.325081969926	2.5337904e-05
1	634	145.347554078927	2.5337904e-05
1	639	145.832938278271	2.5337904e-05
1	644	145.979304633156	2.5337904e-05
1	649	148.708600317023	2.5337904e-05
1	654	149.570871459526	2.5337904e-05
1	659	150.260464907035	2.5337904e-05
1	664	150.790467914126	2.5337904e-05
1	669	150.984075776684	2.5337904e-05
1	674	151.34291463668	2.5337904e-05
1	679	151.806700366138	2.5337904e-05
1	684	152.621582479482	2.5337904e-05
1	689	153.104780010262	2.5337904e-05
1	694	153.827535560611	2.5337904e-05
1	699	155.026330624473	2.5337904e-05
1	704	155.43523298304	2.5337904e-05
1	709	157.289410479814	2.5337904e-05
1	714	168.561928246751	2.5337904e-05
1	719	171.393813976913	2.5337904e-05
1	724	172.079339126075	2.5337904e-05
1	729	172.088244516084	2.5337904e-05
1	734	178.835254429009	2.5337904e-05
1	739	180.469467011983	2.5337904e-05
1	744	180.524318524567	2.5337904e-05
1	749	181.074183040357	2.5337904e-05
1	754	182.483820482705	2.5337904e-05
1	760	183.515856649712	2.5337904e-05
1	765	184.092207097387	2.5337904e-05
1	770	185.228202629948	2.5337904e-05
1	775	187.302826494725	2.5337904e-05
1	780	188.558685115722	2.5337904e-05
1	785	189.429012807025	2.5337904e-05
1	790	192.693378658256	2.5337904e-05
1	795	193.057343791354	2.5337904e-05
1	800	193.250681614432	2.5337904e-05
1	805	197.40162272248	2.5337904e-05
1	810	198.713682594023	2.5337904e-05
1	815	200.722694777959	2.5337904e-05
1	820	201.240317644177	2.5337904e-05
1	825	201.473844989373	2.5337904e-05
1	830	202.124331312682	2.5337904e-05
1	835	202.983192580931	2.5337904e-05
1	840	203.820975012858	2.5337904e-05
1	845	203.904039914802	2.5337904e-05
1	850	203.906829687843	2.5337904e-05
1	855	204.518265452141	2.5337904e-05
1	860	205.14836343418	2.5337904e-05
1	865	206.131183202701	2.5337904e-05
1	870	208.405857142414	2.5337904e-05
1	875	208.450817561282	2.5337904e-05
1	880	209.381137112551	2.5337904e-05
1	885	209.774729500006	2.5337904e-05
1	890	210.148241906839	2.5337904e-05
1	895	210.456961038561	2.5337904e-05
1	900	211.887103418089	2.5337904e-05
1	905	215.379646066537	2.5337904e-05
1	911	217.719611669566	2.5337904e-05
1	916	219.533417936204	2.5337904e-05
1	921	219.650985048942	2.5337904e-05
1	926	219.763275909697	2.5337904e-05
1	931	221.302979337249	2.5337904e-05
1	936	221.463916017029	2.5337904e-05
1	941	222.24032740713	2.5337904e-05
1	946	224.710921278891	2.5337904e-05
1	951	225.153245724938	2.5337904e-05
1	956	225.821099905589	2.5337904e-05
1	961	226.150360274176	2.5337904e-05
1	966	229.056028858087	2.5337904e-05
1	971	229.183382876752	2.5337904e-05
1	976	229.264400341173	2.5337904e-05
1	981	229.412227881772	2.5337904e-05
1	986	230.229004188311	2.5337904e-05
1	991	230.34002615563	2.5337904e-05
1	996	231.197705697572	2.5337904e-05
1	1001	231.660800338037	2.5337904e-05
1	1006	231.849258793133	2.5337904e-05
1	1011	231.899458583833	2.5337904e-05
1	1016	232.1688851526	2.5337904e-05
1	1021	232.177988249724	2.5337904e-05
1	1026	232.21539159547	2.5337904e-05
1	1031	232.850891667111	2.5337904e-05
1	1036	233.252293781892	2.5337904e-05
1	1041	233.846143044363	2.5337904e-05
1	1046	234.774085647825	2.5337904e-05
1	1051	236.116776480961	2.5337904e-05
1	1056	236.672862620542	2.5337904e-05
1	1062	236.966819166671	0.247680120093
1	1067	238.30551400236	2.5337904e-05
1	1072	238.533309284688	2.5337904e-05
1	1077	239.73395663736	2.5337904e-05
1	1082	240.620325786	2.5337904e-05
1	1087	240.883680490285	2.5337904e-05
1	1092	240.967217180334	2.5337904e-05
1	1097	241.010686805125	2.5337904e-05
1	1102	243.049903129303	2.5337904e-05
1	1107	244.033309912279	2.5337904e-05
1	1112	244.238153799168	2.5337904e-05
1	1117	246.244252679502	2.5337904e-05
1	1122	247.844828178432	2.5337904e-05
1	1127	248.984538722573	2.5337904e-05
1	1132	250.635796943812	2.5337904e-05
1	1137	250.659662262798	2.5337904e-05
1	1142	252.050680195994	2.5337904e-05
1	1147	252.54371044593	2.5337904e-05
1	1152	253.103847852377	2.5337904e-05
1	1157	253.549167453228	2.5337904e-05
1	1162	254.220701691361	2.5337904e-05
1	1167	254.299247196517	2.5337904e-05
1	1172	255.047461835276	2.5337904e-05
1	1177	255.710412358676	2.5337904e-05
1	1182	255.838229593692	2.5337904e-05
1	1187	257.542196386902	2.5337904e-05
1	1192	258.847010903426	2.5337904e-05
1	1197	259.522210590468	2.5337904e-05
1	1202	260.152801715312	2.5337904e-05
1	1207	261.249729465489	2.5337904e-05
1	1213	261.543686011618	0.074841170714
1	1218	262.717033409559	2.5337904e-05
1	1223	264.427852694469	2.5337904e-05
1	1228	265.457561516467	2.5337904e-05
1	1233	267.27864541084	2.5337904e-05
1	1238	268.343306061092	2.5337904e-05
1	1243	269.179981429562	2.5337904e-05
1	1248	269.323730901062	2.5337904e-05
1	1253	271.099960074968	2.5337904e-05
1	1258	273.561042652332	2.5337904e-05
1	1263	274.119255354234	2.5337904e-05
1	1268	274.774606387895	2.5337904e-05
1	1273	275.993359781644	2.5337904e-05
1	1278	276.289329378544	2.5337904e-05
1	1283	277.655282616453	2.5337904e-05
1	1288	280.086103466925	2.5337904e-05
1	1293	281.491445250627	2.5337904e-05
1	1298	281.648456048065	2.5337904e-05
1	1303	281.665653790514	2.5337904e-05
1	1308	283.116834677419	2.5337904e-05
1	1313	283.533750748173	2.5337904e-05
1	1318	284.687277983152	2.5337904e-05
1	1323	285.232640871328	2.5337904e-05
1	1328	286.628809118712	2.5337904e-05
1	1333	288.623181212923	2.5337904e-05
1	1338	288.713690900587	2.5337904e-05
1	1343	289.972948062282	2.5337904e-05
1	1348	289.982218573583	2.5337904e-05
1	1353	291.288732942931	2.5337904e-05
1	1358	291.599947229636	2.5337904e-05
1	1364	296.538931077384	2.5337904e-05
1	1369	297.820340803873	2.5337904e-05
1	1374	297.828717109798	2.5337904e-05
1	1379	298.525679665484	2.5337904e-05
1	1384	298.929196920955	2.5337904e-05
1	1389	298.97441680567	2.5337904e-05
1	1394	301.000620008774	2.5337904e-05
1	1399	305.031636331851	2.5337904e-05
1	1404	305.298636701733	2.5337904e-05
1	1409	305.925661513319	2.5337904e-05
1	1414	305.98137509776	2.5337904e-05
1	1419	306.477574885965	2.5337904e-05
1	1424	307.279488068094	2.5337904e-05
1	1429	308.043347217771	2.5337904e-05
1	1434	310.868281006203	2.5337904e-05
1	1439	311.053593826146	2.5337904e-05
1	1444	312.124105352054	2.5337904e-05
1	1449	316.372470000007	2.5337904e-05
1	1454	316.933877032422	2.5337904e-05
1	1459	317.425634826647	2.5337904e-05
1	1464	318.504903563962	2.5337904e-05
1	1469	318.83549486824	2.5337904e-05
1	1474	319.904799724197	2.5337904e-05
1	1479	321.231746035628	2.5337904e-05
1	1484	321.452164654345	2.5337904e-05
1	1489	322.614274395712	2.5337904e-05
1	1494	323.349278489293	2.5337904e-05
1	1499	323.690627499137	2.5337904e-05
1	1504	324.277193417312	2.5337904e-05
1	1509	326.0485125345	2.5337904e-05
1	1517	326.342469080629	0.275165742344
1	1520	326.342494418533	0.26206809473
1	1525	326.998185316085	2.5337904e-05
1	1530	327.829155451882	2.5337904e-05
1	1535	330.671874221873	2.5337904e-05
1	1540	331.205559303782	2.5337904e-05
1	1545	331.910750248356	2.5337904e-05
1	1550	333.393818289343	2.5337904e-05
1	1555	336.3562011551	2.5337904e-05
1	1560	336.714963203159	2.5337904e-05
1	1565	336.817697418139	2.5337904e-05
1	1570	338.324882405175	2.5337904e-05
1	1575	338.476854809037	2.5337904e-05
1	1580	338.882375571271	2.5337904e-05
1	1585	340.653616814125	2.5337904e-05
1	1590	341.426978537444	2.5337904e-05
1	1595	341.880767486656	2.5337904e-05
1	1600	342.130500508268	2.5337904e-05
1	1605	342.342540282432	2.5337904e-05
1	1610	346.963668653858	2.5337904e-05
1	1615	347.120451989601	2.5337904e-05
1	1620	348.088120666546	2.5337904e-05
1	1625	349.053405862283	2.5337904e-05
1	1630	350.010756884467	2.5337904e-05
1	1635	350.743233529974	2.5337904e-05
1	1640	351.334300425556	2.5337904e-05
1	1645	352.043758489203	2.5337904e-05
1	1650	354.003302687572	2.5337904e-05
1	1655	354.150344774876	2.5337904e-05
1	1660	355.591133181536	2.5337904e-05
1	1666	356.822148562348	2.5337904e-05
1	1671	356.860347801132	2.5337904e-05
1	1676	357.235728887328	2.5337904e-05
1	1681	357.575664721402	2.5337904e-05
1	1686	358.013745683092	2.5337904e-05
1	1691	359.021005619909	2.5337904e-05
1	1696	360.385595178626	2.5337904e-05
1	1701	361.925833233754	2.5337904e-05
1	1706	362.23058246585	2.5337904e-05
1	1711	362.575024739945	2.5337904e-05
1	1716	364.431929300601	2.5337904e-05
1	1721	365.914649588878	2.5337904e-05
1	1726	366.737346592528	2.5337904e-05
1	1731	367.497894480751	2.5337904e-05
1	1736	367.837691011327	2.5337904e-05
1	1741	368.942895940676	2.5337904e-05
1	1746	371.830014903718	2.5337904e-05
1	1751	372.051491073517	2.5337904e-05
1	1756	372.430983510489	2.5337904e-05
1	1761	373.309558219496	2.5337904e-05
1	1766	376.395233146669	2.5337904e-05
1	1771	376.520229762617	2.5337904e-05
1	1776	377.46899930084	2.5337904e-05
1	1781	378.597786223897	2.5337904e-05
1	1786	379.443897430042	2.5337904e-05
1	1791	381.657450059783	2.5337904e-05
1	1796	382.90594994764	2.5337904e-05
1	1801	383.309774121047	2.5337904e-05
1	1806	384.679537467255	2.5337904e-05
1	1811	385.837031886318	2.5337904e-05
1	1817	386.130988432447	0.007807465499
1	1822	386.752717341142	2.5337904e-05
1	1827	387.787451131537	2.5337904e-05
1	1832	388.016527884741	2.5337904e-05
1	1837	388.102692798859	2.5337904e-05
1	1842	388.652238661555	2.5337904e-05
1	1847	388.976954321111	2.5337904e-05
1	1852	390.154509736828	2.5337904e-05
1	1857	391.550815537033	2.5337904e-05
1	1862	392.517288557423	2.5337904e-05
1	1867	392.810989564867	2.5337904e-05
1	1872	393.955990937247	2.5337904e-05
1	1877	395.373271138701	2.5337904e-05
1	1882	399.788783505206	2.5337904e-05
1	1887	400.103737775603	2.5337904e-05
1	1892	400.306956551325	2.5337904e-05
1	1897	401.422949396505	2.5337904e-05
1	1902	404.042818474647	2.5337904e-05
1	1907	405.23137532343	2.5337904e-05
1	1912	407.232312659884	2.5337904e-05
1	1917	407.764727342166	2.5337904e-05
1	1922	410.278781589585	2.5337904e-05
1	1927	411.084623626335	2.5337904e-05
1	1932	411.556850297612	2.5337904e-05
1	1937	413.538842610028	2.5337904e-05
1	1942	414.0524091739	2.5337904e-05
1	1947	415.643300291614	2.5337904e-05
1	1952	415.822667599793	2.5337904e-05
1	1957	417.124129683139	2.5337904e-05
1	1962	418.582903574102	2.5337904e-05
1	1968	418.876860120231	0.267618719032
1	1973	419.098910774557	2.5337904e-05
1	1978	419.485097827276	2.5337904e-05
1	1983	419.734633085961	2.5337904e-05
1	1988	420.004279929695	2.5337904e-05
1	1993	420.314587575151	2.5337904e-05
1	1998	421.072876733893	2.5337904e-05
1	2003	422.445060233118	2.5337904e-05
1	2008	422.515371653574	2.5337904e-05
1	2013	422.589695088028	2.5337904e-05
1	2018	424.77633345262	2.5337904e-05
1	2023	426.14251871459	2.5337904e-05
1	2028	428.962838600901	2.5337904e-05
1	2033	429.028722083515	2.5337904e-05
1	2038	431.037763894011	2.5337904e-05
1	2043	431.525743836876	2.5337904e-05
1	2048	431.67323829786	2.5337904e-05
1	2053	432.614149239563	2.5337904e-05
1	2058	433.679007449343	2.5337904e-05
1	2063	433.765595341533	2.5337904e-05
1	2068	434.410727296927	2.5337904e-05
1	2073	434.995936691156	2.5337904e-05
1	2078	437.371131489467	2.5337904e-05
1	2083	437.383388393043	2.5337904e-05
1	2088	437.538390685721	2.5337904e-05
1	2093	438.416158447486	2.5337904e-05
1	2098	443.22356300133	2.5337904e-05
1	2103	445.912674253648	2.5337904e-05
1	2108	446.052918168081	2.5337904e-05
1	2113	446.203759973199	2.5337904e-05
1	2119	446.497716519328	0.149306157196
1	2124	447.764681756823	2.5337904e-05
1	2129	452.346939553368	2.5337904e-05
1	2134	452.710226730464	2.5337904e-05
1	2139	454.386722044644	2.5337904e-05
1	2144	457.013309216567	2.5337904e-05
1	2149	457.613424012715	2.5337904e-05
1	2154	460.93768230848	2.5337904e-05
1	2159	461.39368496408	2.5337904e-05
1	2164	462.096369587135	2.5337904e-05
1	2169	462.588444544422	2.5337904e-05
1	2174	462.700839128823	2.5337904e-05
1	2179	462.942963703068	2.5337904e-05
1	2184	463.500973946575	2.5337904e-05
1	2189	463.801692951705	2.5337904e-05
1	2194	464.81257765748	2.5337904e-05
1	2199	465.792493431553	2.5337904e-05
1	2204	466.160735627115	2.5337904e-05
1	2209	470.683137597386	2.5337904e-05
1	2214	470.955250271528	2.5337904e-05
1	2219	473.35563457217	2.5337904e-05
1	2224	473.787755856687	2.5337904e-05
1	2229	474.823670953663	2.5337904e-05
1	2234	475.507877851052	2.5337904e-05
1	2239	477.097454759472	2.5337904e-05
1	2244	477.175424172612	2.5337904e-05
1	2249	477.290217825043	2.5337904e-05
1	2254	478.716419528148	2.5337904e-05
1	2259	485.299789083271	2.5337904e-05
1	2264	486.038562750671	2.5337904e-05
1	2270	486.3325192968	0.141228040371
1	2275	487.080375776565	2.5337904e-05
1	2280	489.010363166195	2.5337904e-05
1	2285	491.579969104935	2.5337904e-05
1	2290	491.98659942845	2.5337904e-05
1	2295	492.975564343043	2.5337904e-05
1	2300	495.352482778687	2.5337904e-05
1	2305	495.677283926197	2.5337904e-05
1	2310	496.220451677122	2.5337904e-05
1	2315	496.924181818341	2.5337904e-05
1	2320	498.604269000803	2.5337904e-05
1	2325	498.638251904197	2.5337904e-05
1	2330	499.539620935895	2.5337904e-05
1	2335	502.051520950112	2.5337904e-05
1	2340	502.418689798115	2.5337904e-05
1	2345	502.49904950982	2.5337904e-05
1	2350	502.901924948337	2.5337904e-05
1	2355	503.062060107361	2.5337904e-05
1	2360	503.189652986191	2.5337904e-05
1	2365	503.196738181353	2.5337904e-05
1	2370	504.519250179554	2.5337904e-05
1	2375	505.909800180255	2.5337904e-05
1	2380	505.969646036592	2.5337904e-05
1	2385	506.147376423577	2.5337904e-05
1	2390	509.143780023223	2.5337904e-05
1	2395	509.585714559545	2.5337904e-05
1	2400	510.362124277512	2.5337904e-05
1	2405	510.46918320046	2.5337904e-05
1	2410	510.469212704263	2.5337904e-05
1	2415	510.688828163955	2.5337904e-05
1	2421	511.744036126183	2.5337904e-05
1	2426	513.833942533586	2.5337904e-05
1	2431	515.436169256479	2.5337904e-05
1	2436	519.137099717154	2.5337904e-05
1	2441	519.700043061847	2.5337904e-05
1	2446	519.878448463426	2.5337904e-05
1	2451	520.383501874363	2.5337904e-05
1	2456	520.397563668105	2.5337904e-05
1	2461	521.933266737524	2.5337904e-05
1	2466	522.027787353346	2.5337904e-05
1	2471	522.394315563981	2.5337904e-05
1	2476	522.577321330758	2.5337904e-05
1	2481	523.221205435552	2.5337904e-05
1	2486	524.505994732466	2.5337904e-05
1	2491	525.77293955341	2.5337904e-05
1	2496	527.382418412512	2.5337904e-05
1	2501	527.806249721593	2.5337904e-05
1	2506	530.576553987718	2.5337904e-05
1	2511	531.182062902025	2.5337904e-05
1	2516	533.283000017368	2.5337904e-05
1	2521	534.323382891329	2.5337904e-05
1	2526	534.380271095507	2.5337904e-05
1	2531	534.535369103877	2.5337904e-05
1	2536	535.20055109476	2.5337904e-05
1	2541	535.292840767567	2.5337904e-05
1	2546	537.744888513933	2.5337904e-05
1	2551	538.117018993605	2.5337904e-05
1	2556	538.336928708123	2.5337904e-05
1	2561	538.429563734232	2.5337904e-05
1	2566	539.463412696901	2.5337904e-05
1	2572	539.75736924303	0.136378572406
1	2577	540.631528763777	2.5337904e-05
1	2582	541.351135182819	2.5337904e-05
1	2587	544.33011779517	2.5337904e-05
1	2592	545.097273459857	2.5337904e-05
1	2597	546.977902566907	2.5337904e-05
1	2602	548.670373036693	2.5337904e-05
1	2607	551.136162081991	2.5337904e-05
1	2612	551.707408722591	2.5337904e-05
1	2617	551.836485405914	2.5337904e-05
1	2622	552.384228381508	2.5337904e-05
1	2627	552.759708357618	2.5337904e-05
1	2632	552.954342431627	2.5337904e-05
1	2637	554.352736948402	2.5337904e-05
1	2642	554.427504970929	2.5337904e-05
1	2647	555.534013826176	2.5337904e-05
1	2652	560.055163895848	2.5337904e-05
1	2657	561.99706392636	2.5337904e-05
1	2662	564.123541010449	2.5337904e-05
1	2667	564.326183926888	2.5337904e-05
1	2672	565.132489079583	2.5337904e-05
1	2677	566.270313348319	2.5337904e-05
1	2682	567.638551532714	2.5337904e-05
1	2687	569.423982384129	2.5337904e-05
1	2692	569.576053627156	2.5337904e-05
1	2697	570.052460647306	2.5337904e-05
1	2702	570.198554693498	2.5337904e-05
1	2707	572.315292878802	2.5337904e-05
1	2712	573.150003811699	2.5337904e-05
1	2717	573.31919806944	2.5337904e-05
1	2723	573.935602408278	2.5337904e-05
1	2728	575.266861846297	2.5337904e-05
1	2733	575.804457574341	2.5337904e-05
1	2738	576.448536571674	2.5337904e-05
1	2743	577.757723777752	2.5337904e-05
1	2748	578.33699329712	2.5337904e-05
1	2753	581.390293490244	2.5337904e-05
1	2758	581.789210865474	2.5337904e-05
1	2763	582.223964446618	2.5337904e-05
1	2768	582.26182434795	2.5337904e-05
1	2773	582.876512025994	2.5337904e-05
1	2778	585.452831321916	2.5337904e-05
1	2783	585.488739383099	2.5337904e-05
1	2788	586.064328656078	2.5337904e-05
1	2793	587.135459936411	2.5337904e-05
1	2798	588.597721942641	2.5337904e-05
1	2803	588.899225608909	2.5337904e-05
1	2808	588.954298588608	2.5337904e-05
1	2813	590.178413456854	2.5337904e-05
1	2818	591.49950094669	2.5337904e-05
1	2823	591.82771499987	2.5337904e-05
1	2828	593.678009742899	2.5337904e-05
1	2833	595.09381186358	2.5337904e-05
1	2838	595.502017365164	2.5337904e-05
1	2843	595.527092872515	2.5337904e-05
1	2848	597.188792352942	2.5337904e-05
1	2853	597.679581951434	2.5337904e-05
1	2858	597.726965180226	2.5337904e-05
1	2863	598.840441111778	2.5337904e-05
1	2868	599.474346730245	2.5337904e-05
1	2874	601.852394410751	2.5337904e-05
1	2879	603.581030970886	2.5337904e-05
1	2884	603.950731636829	2.5337904e-05
1	2889	604.619654753541	2.5337904e-05
1	2894	606.119055286612	2.5337904e-05
1	2899	607.71140791224	2.5337904e-05
1	2904	610.777362500689	2.5337904e-05
1	2909	611.239049163016	2.5337904e-05
1	2914	611.638767994256	2.5337904e-05
1	2919	612.547324411011	2.5337904e-05
1	2924	614.453525236388	2.5337904e-05
1	2929	615.357251929371	2.5337904e-05
1	2934	616.294614904499	2.5337904e-05
1	2939	617.144881300338	2.5337904e-05
1	2944	618.408469601036	2.5337904e-05
1	2949	618.660267061559	2.5337904e-05
1	2954	619.275616160398	2.5337904e-05
1	2959	622.016629689752	2.5337904e-05
1	2964	622.325053474376	2.5337904e-05
1	2969	622.352906432684	2.5337904e-05
1	2974	623.963386340673	2.5337904e-05
1	2979	624.555199520119	2.5337904e-05
1	2984	625.561087544353	2.5337904e-05
1	2989	627.118793440759	2.5337904e-05
1	2994	627.77101982506	2.5337904e-05
1	2999	628.891120453907	2.5337904e-05
1	3004	629.400907777629	2.5337904e-05
1	3009	634.58520593279	2.5337904e-05
1	3014	642.586703454371	2.5337904e-05
1	3019	645.502642156574	2.5337904e-05
1	3025	645.796598702703	0.213541237333
1	3030	646.820564309723	2.5337904e-05
1	3035	648.404475893873	2.5337904e-05
1	3040	648.636323984133	2.5337904e-05
1	3045	649.210958174048	2.5337904e-05
1	3050	653.262382940908	2.5337904e-05
1	3055	653.621527849605	2.5337904e-05
1	3060	653.749037900326	2.5337904e-05
1	3065	657.851699295581	2.5337904e-05
1	3070	659.8766568413	2.5337904e-05
1	3075	660.560871317283	2.5337904e-05
1	3080	660.620268163368	2.5337904e-05
1	3085	663.94964633646	2.5337904e-05
1	3090	664.079296455075	2.5337904e-05
1	3095	664.375697193498	2.5337904e-05
1	3100	664.833108008379	2.5337904e-05
1	3105	665.525379547594	2.5337904e-05
1	3110	669.470155148315	2.5337904e-05
1	3115	671.673288427951	2.5337904e-05
1	3120	673.852917285263	2.5337904e-05
1	3125	673.879506553458	2.5337904e-05
1	3130	673.994575633171	2.5337904e-05
1	3135	674.233412138933	2.5337904e-05
1	3140	675.642421060697	2.5337904e-05
1	3145	675.778919050091	2.5337904e-05
1	3150	678.146422122255	2.5337904e-05
1	3155	679.73461671883	2.5337904e-05
1	3160	679.919928724694	2.5337904e-05
1	3165	682.58126829297	2.5337904e-05
1	3170	682.757019866508	2.5337904e-05
1	3176	683.050976412637	0.293571715778
1	3181	684.701559300383	2.5337904e-05
1	3186	685.178603990781	2.5337904e-05
1	3191	686.062824929585	2.5337904e-05
1	3196	687.827494335749	2.5337904e-05
1	3201	688.574434743851	2.5337904e-05
1	3206	691.232316185705	2.5337904e-05
1	3211	692.592583530621	2.5337904e-05
1	3216	692.814257548818	2.5337904e-05
1	3221	693.679309134603	2.5337904e-05
1	3226	693.982389869848	2.5337904e-05
1	3231	695.370640093504	2.5337904e-05
1	3236	700.711331505502	2.5337904e-05
1	3241	700.825029740268	2.5337904e-05
1	3246	701.477122652676	2.5337904e-05
1	3251	702.593791403026	2.5337904e-05
1	3256	703.400453474822	2.5337904e-05
1	3261	703.832701272237	2.5337904e-05
1	3266	703.973233302398	2.5337904e-05
1	3271	704.234074737892	2.5337904e-05
1	3276	706.613638836372	2.5337904e-05
1	3281	707.095076224629	2.5337904e-05
1	3286	708.181949809815	2.5337904e-05
1	3291	710.29380444118	2.5337904e-05
1	3296	710.373516458799	2.5337904e-05
1	3301	714.028445084932	2.5337904e-05
1	3306	714.273059403144	2.5337904e-05
1	3311	715.186038251675	2.5337904e-05
1	3316	718.017799217292	2.5337904e-05
1	3321	718.20049734284	2.5337904e-05
1	3327	718.648612206797	2.5337904e-05
1	3332	721.169910600777	2.5337904e-05
1	3337	722.591294741136	2.5337904e-05
1	3342	724.6497174257	2.5337904e-05
1	3347	725.560608046508	2.5337904e-05
1	3352	727.170635386467	2.5337904e-05
1	3357	727.501315615743	2.5337904e-05
1	3362	728.216894320776	2.5337904e-05
1	3367	729.530945335901	2.5337904e-05
1	3372	730.578763690237	2.5337904e-05
1	3377	731.061482213632	2.5337904e-05
1	3382	731.429969743235	2.5337904e-05
1	3387	732.315997754884	2.5337904e-05
1	3392	732.814054851437	2.5337904e-05
1	3397	733.198760331232	2.5337904e-05
1	3402	733.21595058366	2.5337904e-05
1	3407	733.53381154242	2.5337904e-05
1	3412	733.898928138002	2.5337904e-05
1	3417	735.238823405	2.5337904e-05
1	3422	736.047629676514	2.5337904e-05
1	3427	738.663386975451	2.5337904e-05
1	3432	739.241716697751	2.5337904e-05
1	3437	739.74988955392	2.5337904e-05
1	3442	740.100281997729	2.5337904e-05
1	3447	740.640432827776	2.5337904e-05
1	3452	740.772246720545	2.5337904e-05
1	3457	740.887757025407	2.5337904e-05
1	3462	741.799693607939	2.5337904e-05
1	3467	742.228287814288	2.5337904e-05
1	3472	742.690930522912	2.5337904e-05
1	3478	742.984887069041	0.134692767058
1	3483	743.031837620403	2.5337904e-05
1	3488	744.396799569855	2.5337904e-05
1	3493	747.270034186461	2.5337904e-05
1	3498	750.751866499523	2.5337904e-05
1	3503	751.542728536967	2.5337904e-05
1	3508	753.106003765503	2.5337904e-05
1	3513	753.712531895343	2.5337904e-05
1	3518	754.119629596489	2.5337904e-05
1	3523	758.117086544234	2.5337904e-05
1	3528	758.51942940201	2.5337904e-05
1	3533	758.951013919296	2.5337904e-05
1	3538	759.392666358843	2.5337904e-05
1	3543	761.326694743197	2.5337904e-05
1	3548	761.375128790179	2.5337904e-05
1	3553	761.858675768033	2.5337904e-05
1	3558	765.433032266012	2.5337904e-05
1	3563	767.038198558359	2.5337904e-05
1	3568	771.602085374765	2.5337904e-05
1	3573	771.709715537498	2.5337904e-05
1	3578	772.436218542762	2.5337904e-05
1	3583	772.583794771283	2.5337904e-05
1	3588	774.431164340911	2.5337904e-05
1	3593	775.929617425164	2.5337904e-05
1	3598	777.631007256041	2.5337904e-05
1	3603	778.328292272036	2.5337904e-05
1	3608	778.795797430785	2.5337904e-05
1	3613	780.600024454727	2.5337904e-05
1	3618	780.871942822685	2.5337904e-05
1	3623	782.757041539026	2.5337904e-05
1	3629	784.889860540405	2.5337904e-05
1	3634	786.282419750489	2.5337904e-05
1	3639	787.487115562642	2.5337904e-05
1	3644	789.943083523022	2.5337904e-05
1	3649	792.845514685733	2.5337904e-05
1	3654	796.10694785956	2.5337904e-05
1	3659	797.818502139159	2.5337904e-05
1	3664	797.838793663689	2.5337904e-05
1	3669	800.377699760199	2.5337904e-05
1	3674	801.005801138684	2.5337904e-05
1	3679	801.47508451488	2.5337904e-05
1	3684	801.613761799564	2.5337904e-05
1	3689	803.530153859765	2.5337904e-05
1	3694	804.494400661872	2.5337904e-05
1	3699	804.750872409752	2.5337904e-05
1	3704	804.875621560351	2.5337904e-05
1	3709	805.055118953394	2.5337904e-05
1	3714	805.096240436771	2.5337904e-05
1	3719	805.179721672659	2.5337904e-05
1	3724	806.131988279864	2.5337904e-05
1	3729	807.084204389918	2.5337904e-05
1	3734	807.411442216899	2.5337904e-05
1	3739	809.468860983966	2.5337904e-05
1	3744	809.902027179114	2.5337904e-05
1	3749	812.786732586254	2.5337904e-05
1	3754	813.15459620861	2.5337904e-05
1	3759	813.554898619655	2.5337904e-05
1	3764	814.277198945392	2.5337904e-05
1	3769	816.307159574456	2.5337904e-05
1	3774	817.123182577701	2.5337904e-05
1	3780	817.44287877305	2.5337904e-05
1	3785	818.613904802785	2.5337904e-05
1	3790	819.1322937565	2.5337904e-05
1	3795	820.882087588591	2.5337904e-05
1	3800	821.190953618323	2.5337904e-05
1	3805	822.334643321152	2.5337904e-05
1	3810	825.6686977193	2.5337904e-05
1	3815	825.901703373093	2.5337904e-05
1	3820	826.964977512424	2.5337904e-05
1	3825	827.109880500372	2.5337904e-05
1	3830	828.053536406454	2.5337904e-05
1	3835	828.184169805601	2.5337904e-05
1	3840	830.560707119679	2.5337904e-05
1	3845	831.089046857062	2.5337904e-05
1	3850	832.072852123578	2.5337904e-05
1	3855	833.023335886201	2.5337904e-05
1	3860	833.148802521613	2.5337904e-05
1	3865	833.160794828149	2.5337904e-05
1	3870	833.990740437885	2.5337904e-05
1	3875	836.31378704158	2.5337904e-05
1	3880	839.551495959303	2.5337904e-05
1	3885	839.863662465595	2.5337904e-05
1	3890	839.886919709681	2.5337904e-05
1	3895	840.137091294939	2.5337904e-05
1	3900	840.696443318449	2.5337904e-05
1	3905	840.862797976529	2.5337904e-05
1	3910	841.0303918505	2.5337904e-05
1	3915	842.579168397721	2.5337904e-05
1	3920	842.993494963073	2.5337904e-05
1	3925	843.171222591141	2.5337904e-05
1	3931	843.687971825203	2.5337904e-05
1	3936	844.058782641377	2.5337904e-05
1	3941	844.893414489002	2.5337904e-05
1	3946	845.370805375126	2.5337904e-05
1	3951	846.346049157202	2.5337904e-05
1	3956	846.700974111597	2.5337904e-05
1	3961	847.079639010566	2.5337904e-05
1	3966	847.509347188033	2.5337904e-05
1	3971	849.738512680939	2.5337904e-05
1	3976	850.078708155265	2.5337904e-05
1	3981	851.39003268805	2.5337904e-05
1	3986	851.481526457166	2.5337904e-05
1	3991	852.500953262575	2.5337904e-05
1	3996	853.22809140661	2.5337904e-05
1	4001	853.351931359994	2.5337904e-05
1	4006	854.499547231408	2.5337904e-05
1	4011	854.51273318841	2.5337904e-05
1	4016	856.811678354436	2.5337904e-05
1	4021	860.171832194795	2.5337904e-05
1	4026	860.878279743162	2.5337904e-05
1	4031	862.525837789321	2.5337904e-05
1	4036	863.042786259746	2.5337904e-05
1	4041	863.380370140915	2.5337904e-05
1	4046	865.066507031418	2.5337904e-05
1	4051	866.074501186082	2.5337904e-05
1	4056	866.109604421097	2.5337904e-05
1	4061	867.619396673844	2.5337904e-05
1	4066	868.508058668191	2.5337904e-05
1	4071	870.741789756121	2.5337904e-05
1	4076	871.504462455534	2.5337904e-05
1	4082	872.321611140156	2.5337904e-05
1	4087	872.684461526431	2.5337904e-05
1	4092	873.044829913908	2.5337904e-05
1	4097	873.853077570209	2.5337904e-05
1	4102	874.025236341476	2.5337904e-05
1	4107	874.416411329415	2.5337904e-05
1	4112	876.35954986061	2.5337904e-05
1	4117	877.893149983424	2.5337904e-05
1	4122	880.292543419809	2.5337904e-05
1	4127	881.878026297736	2.5337904e-05
1	4132	883.562537495195	2.5337904e-05
1	4137	885.343729742218	2.5337904e-05
1	4142	885.476968578174	2.5337904e-05
1	4147	885.603386995476	2.5337904e-05
1	4152	886.759947799734	2.5337904e-05
1	4157	889.066189298077	2.5337904e-05
1	4162	889.456169974084	2.5337904e-05
1	4167	891.466215166725	2.5337904e-05
1	4172	892.95958814333	2.5337904e-05
1	4177	894.544564903255	2.5337904e-05
1	4182	896.747156586071	2.5337904e-05
1	4187	896.979954455714	2.5337904e-05
1	4192	899.082805531877	2.5337904e-05
1	4197	901.139300566681	2.5337904e-05
1	4202	901.587288654969	2.5337904e-05
1	4207	904.077234454568	2.5337904e-05
1	4212	904.103659407167	2.5337904e-05
1	4217	905.819617506386	2.5337904e-05
1	4222	906.067454543719	2.5337904e-05
1	4227	906.866807178677	2.5337904e-05
1	4233	909.06406668285	2.5337904e-05
1	4238	909.726451060588	2.5337904e-05
1	4243	910.241502303774	2.5337904e-05
1	4248	912.430180373893	2.5337904e-05
1	4253	913.708321542519	2.5337904e-05
1	4258	915.536700967302	2.5337904e-05
1	4263	916.016316964438	2.5337904e-05
1	4268	916.09325669214	2.5337904e-05
1	4273	916.213341988441	2.5337904e-05
1	4278	916.608815266099	2.5337904e-05
1	4283	917.473636888367	2.5337904e-05
1	4288	917.666950110958	2.5337904e-05
1	4293	919.041598575373	2.5337904e-05
1	4298	921.143998462534	2.5337904e-05
1	4303	922.78182951295	2.5337904e-05
1	4308	922.892615339817	2.5337904e-05
1	4313	923.241816636216	2.5337904e-05
1	4318	923.790382090254	2.5337904e-05
1	4323	925.204488520072	2.5337904e-05
1	4328	927.888874251092	2.5337904e-05
1	4333	930.702719989171	2.5337904e-05
1	4338	931.070521024395	2.5337904e-05
1	4343	933.052441824693	2.5337904e-05
1	4348	933.17586945101	2.5337904e-05
1	4353	933.649857538632	2.5337904e-05
1	4358	933.836551715751	2.5337904e-05
1	4363	934.668468873673	2.5337904e-05
1	4368	935.291991796892	2.5337904e-05
1	4373	936.719149904828	2.5337904e-05
1	4378	936.896270362404	2.5337904e-05
1	4384	938.959013607076	2.5337904e-05
1	4389	941.943756399386	2.5337904e-05
1	4394	942.3530175908	2.5337904e-05
1	4399	942.916968991347	2.5337904e-05
1	4404	944.523965402634	2.5337904e-05
1	4409	946.636770266275	2.5337904e-05
1	4414	947.024289675391	2.5337904e-05
1	4419	947.869893980796	2.5337904e-05
1	4424	950.472684397575	2.5337904e-05
1	4429	950.627769541673	2.5337904e-05
1	4434	951.501922008212	2.5337904e-05
1	4439	952.024207647043	2.5337904e-05
1	4444	952.159430826792	2.5337904e-05
1	4449	953.979155865429	2.5337904e-05
1	4454	955.248891336777	2.5337904e-05
1	4459	955.404641244807	2.5337904e-05
1	4464	955.492586461007	2.5337904e-05
1	4469	956.497984493629	2.5337904e-05
1	4474	956.899267422568	2.5337904e-05
1	4479	957.020375917751	2.5337904e-05
1	4484	960.712756714512	2.5337904e-05
1	4489	961.059329625496	2.5337904e-05
1	4494	961.289161321015	2.5337904e-05
1	4499	962.543878158382	2.5337904e-05
1	4504	964.429145577368	2.5337904e-05
1	4509	964.895645734838	2.5337904e-05
1	4514	964.918796323892	2.5337904e-05
1	4519	965.855088887259	2.5337904e-05
1	4524	970.523310035609	2.5337904e-05
1	4529	972.427393274035	2.5337904e-05
1	4535	973.276029898561	2.5337904e-05
1	4540	974.97561060031	2.5337904e-05
1	4545	976.755924124314	2.5337904e-05
1	4550	977.353127553102	2.5337904e-05
1	4555	977.840367403839	2.5337904e-05
1	4560	978.25475686857	2.5337904e-05
1	4565	978.588684368058	2.5337904e-05
1	4570	978.677413806069	2.5337904e-05
1	4575	978.812277542674	2.5337904e-05
1	4580	979.246083196386	2.5337904e-05
1	4585	980.670576599386	2.5337904e-05
1	4590	981.240433729344	2.5337904e-05
1	4595	981.855961541215	2.5337904e-05
1	4600	981.960328257784	2.5337904e-05
1	4605	982.600043297176	2.5337904e-05
1	4610	983.133177440698	2.5337904e-05
1	4615	986.173631767835	2.5337904e-05
1	4620	987.131113920787	2.5337904e-05
1	4625	987.708432251157	2.5337904e-05
1	4630	989.035407941763	2.5337904e-05
1	4635	989.237191936819	2.5337904e-05
1	4640	990.09639104511	2.5337904e-05
1	4645	990.716681582861	2.5337904e-05
1	4650	991.181338440997	2.5337904e-05
1	4655	992.693793537994	2.5337904e-05
1	4660	992.954229343942	2.5337904e-05
1	4665	993.024712887395	2.5337904e-05
1	4670	993.140875214834	2.5337904e-05
1	4675	995.856693877777	2.5337904e-05
1	4680	997.356983017943	2.5337904e-05
1	4686	998.426733077794	2.5337904e-05
1	4691	999.793510832901	2.5337904e-05
1	4696	999.799117084104	2.5337904e-05
2	5	0.536441138662	0
2	10	2.097203133648	0
2	15	2.934555120391	0
2	20	5.222048580665	0
2	25	7.974941057004	0
2	30	8.179813149171	0
2	35	8.501138516409	0
2	40	9.684960212456	0
2	45	9.827057052548	0
2	50	9.916077322719	0
2	55	11.46405510966	0
2	60	11.894949371708	0
2	65	14.276832165513	0
2	70	14.336583184743	0
2	75	15.409190725854	0
2	80	17.026607522675	0
2	85	18.45574889188	0
2	90	21.586592094353	0
2	95	23.772071044116	0
2	100	25.179081563235	0
2	105	25.970402212827	0
2	110	27.794637414123	0
2	115	28.592557090033	0
2	120	30.247981855859	0
2	125	32.042638883013	0
2	130	32.2165846121	0
2	135	32.904070911694	0
2	140	33.844518139103	0
2	145	34.551897039022	0
2	150	35.774815084439	0
2	156	37.01629191929	0
2	161	37.371700445514	0
2	166	38.247243624576	0
2	171	38.620752119743	0
2	176	40.237210464126	0
2	181	41.570855988842	0
2	186	42.900948111112	0
2	191	44.432303340966	0
2	196	44.624719091176	0
2	201	44.642096709974	0
2	206	47.128212471239	0
2	211	48.00446669719	0
2	216	48.390106206195	0
2	221	49.384038266297	0
2	226	50.430478846301	0
2	231	52.596844189262	0
2	236	55.278143019813	0
2	241	55.608696193671	0
2	246	58.073448025038	0
2	251	59.167069589829	0
2	256	59.231207265143	0
2	261	60.624114878417	0
2	266	60.791225183482	0
2	271	63.907856891413	0
2	276	64.982596864179	0
2	281	67.033293278204	0
2	286	67.102187007152	0
2	291	71.770190077775	0
2	296	72.443856117722	0
2	301	73.516617953453	0
2	307	76.178776697297	0
2	312	76.868997238488	0
2	317	77.252118426262	0
2	322	77.374318984599	0
2	327	77.848362680269	0
2	332	77.975564821347	0
2	337	79.142866125041	0
2	342	81.785744806973	0
2	347	82.740421146009	0
2	352	82.781828393617	0
2	357	83.073757924351	0
2	362	83.380463667354	0
2	367	83.675713842278	0
2	372	86.952818955846	0
2	377	87.304288921316	0
2	382	88.761043480966	0
2	387	90.31161131032	0
2	392	90.317106512927	0
2	397	91.721502016676	0
2	402	92.153158849032	0
2	407	94.852987159465	0
2	412	98.075389144136	0
2	417	98.646999985462	0
2	422	101.030125678729	0
2	427	101.522180990821	0
2	432	101.587836839138	0
2	437	103.642664667173	0
2	442	105.72945302442	0
2	447	106.039160445821	0
2	452	106.264962458232	0
2	458	108.993625814903	0
2	463	109.350423051701	0
2	468	111.030409116131	0
2	473	112.140157794898	0
2	478	112.46552616862	0
2	483	112.796296017915	0
2	488	112.990153145265	0
2	493	113.412074345864	0
2	498	117.301249282787	0
2	503	117.556759759775	0
2	508	119.114935739903	0
2	513	119.191392029213	0
2	518	119.490434836315	0
2	523	120.605015673687	0
2	528	121.989765629285	0
2	533	122.371384755792	0
2	538	127.796948515024	0
2	543	129.186893044499	0
2	548	129.509772165458	0
2	553	129.648067962199	0
2	558	129.882735070571	0
2	563	130.119395670881	0
2	568	131.698997354351	0
2	573	132.297064945326	0
2	578	132.722808498339	0
2	583	132.74897333355	0
2	588	136.550645793068	0
2	593	138.498168537511	0
2	598	138.661990914171	0
2	603	138.761376678894	0
2	609	139.689245564985	0
2	614	139.757460136192	0
2	619	141.59278318598	0
2	624	143.213691613936	0
2	629	144.325081969926	0
2	634	145.347554078927	0
2	639	145.832938278271	0
2	644	145.979304633156	0
2	649	148.708600317023	0
2	654	149.570871459526	0
2	659	150.260464907035	0
2	664	150.790467914126	0
2	669	150.984075776684	0
2	674	151.34291463668	0
2	679	151.806700366138	0
2	684	152.621582479482	0
2	689	153.104780010262	0
2	694	153.827535560611	0
2	699	155.026330624473	0
2	704	155.43523298304	0
2	709	157.289410479814	0
2	714	168.561928246751	0
2	719	171.393813976913	0
2	724	172.079339126075	0
2	729	172.088244516084	0
2	734	178.835254429009	0
2	739	180.469467011983	0
2	744	180.524318524567	0
2	749	181.074183040357	0
2	754	182.483820482705	0
2	760	183.515856649712	0
2	765	184.092207097387	0
2	770	185.228202629948	0
2	775	187.302826494725	0
2	780	188.558685115722	0
2	785	189.429012807025	0
2	790	192.693378658256	0
2	795	193.057343791354	0
2	800	193.250681614432	0
2	805	197.40162272248	0
2	810	198.713682594023	0
2	815	200.722694777959	0
2	820	201.240317644177	0
2	825	201.473844989373	0
2	830	202.124331312682	0
2	835	202.983192580931	0
2	840	203.820975012858	0
2	845	203.904039914802	0
2	850	203.906829687843	0
2	855	204.518265452141	0
2	860	205.14836343418	0
2	865	206.131183202701	0
2	870	208.405857142414	0
2	875	208.450817561282	0
2	880	209.381137112551	0
2	885	209.774729500006	0
2	890	210.148241906839	0
2	895	210.456961038561	0
2	900	211.887103418089	0
2	905	215.379646066537	0
2	911	217.719611669566	0
2	916	219.533417936204	0
2	921	219.650985048942	0
2	926	219.763275909697	0
2	931	221.302979337249	0
2	936	221.463916017029	0
2	941	222.24032740713	0
2	946	224.710921278891	0
2	951	225.153245724938	0
2	956	225.821099905589	0
2	961	226.150360274176	0
2	966	229.056028858087	0
2	971	229.183382876752	0
2	976	229.264400341173	0
2	981	229.412227881772	0
2	986	230.229004188311	0
2	991	230.34002615563	0
2	996	231.197705697572	0
2	1001	231.660800338037	0
2	1006	231.849258793133	0
2	1011	231.899458583833	0
2	1016	232.1688851526	0
2	1021	232.177988249724	0
2	1026	232.21539159547	0
2	1031	232.850891667111	0
2	1036	233.252293781892	0
2	1041	233.846143044363	0
2	1046	234.774085647825	0
2	1051	236.116776480961	0
2	1056	236.672862620542	0
2	1062	236.966819166671	0.247654782189
2	1067	238.30551400236	0
2	1072	238.533309284688	0
2	1077	239.73395663736	0
2	1082	240.620325786	0
2	1087	240.883680490285	0
2	1092	240.967217180334	0
2	1097	241.010686805125	0
2	1102	243.049903129303	0
2	1107	244.033309912279	0
2	1112	244.238153799168	0
2	1117	246.244252679502	0
2	1122	247.844828178432	0
2	1127	248.984538722573	0
2	1132	250.635796943812	0
2	1137	250.659662262798	0
2	1142	252.050680195994	0
2	1147	252.54371044593	0
2	1152	253.103847852377	0
2	1157	253.549167453228	0
2	1162	254.220701691361	0
2	1167	254.299247196517	0
2	1172	255.047461835276	0
2	1177	255.710412358676	0
2	1182	255.838229593692	0
2	1187	257.542196386902	0
2	1192	258.847010903426	0
2	1197	259.522210590468	0
2	1202	260.152801715312	0
2	1207	261.249729465489	0
2	1213	261.543686011618	0.07481583281
2	1218	262.717033409559	0
2	1223	264.427852694469	0
2	1228	265.457561516467	0
2	1233	267.27864541084	0
2	1238	268.343306061092	0
2	1243	269.179981429562	0
2	1248	269.323730901062	0
2	1253	271.099960074968	0
2	1258	273.561042652332	0
2	1263	274.119255354234	0
2	1268	274.774606387895	0
2	1273	275.993359781644	0
2	1278	276.289329378544	0
2	1283	277.655282616453	0
2	1288	280.086103466925	0
2	1293	281.491445250627	0
2	1298	281.648456048065	0
2	1303	281.665653790514	0
2	1308	283.116834677419	0
2	1313	283.533750748173	0
2	1318	284.687277983152	0
2	1323	285.232640871328	0
2	1328	286.628809118712	0
2	1333	288.623181212923	0
2	1338	288.713690900587	0
2	1343	289.972948062282	0
2	1348	289.982218573583	0
2	1353	291.288732942931	0
2	1358	291.599947229636	0
2	1364	296.538931077384	0
2	1369	297.820340803873	0
2	1374	297.828717109798	0
2	1379	298.525679665484	0
2	1384	298.929196920955	0
2	1389	298.97441680567	0
2	1394	301.000620008774	0
2	1399	305.031636331851	0
2	1404	305.298636701733	0
2	1409	305.925661513319	0
2	1414	305.98137509776	0
2	1419	306.477574885965	0
2	1424	307.279488068094	0
2	1429	308.043347217771	0
2	1434	310.868281006203	0
2	1439	311.053593826146	0
2	1444	312.124105352054	0
2	1449	316.372470000007	0
2	1454	316.933877032422	0
2	1459	317.425634826647	0
2	1464	318.504903563962	0
2	1469	318.83549486824	0
2	1474	319.904799724197	0
2	1479	321.231746035628	0
2	1484	321.452164654345	0
2	1489	322.614274395712	0
2	1494	323.349278489293	0
2	1499	323.690627499137	0
2	1504	324.277193417312	0
2	1509	326.0485125345	0
2	1517	326.342469080629	0.27514040444
2	1520	326.342494418533	0.262042756826
2	1525	326.998185316085	0
2	1530	327.829155451882	0
2	1535	330.671874221873	0
2	1540	331.205559303782	0
2	1545	331.910750248356	0
2	1550	333.393818289343	0
2	1555	336.3562011551	0
2	1560	336.714963203159	0
2	1565	336.817697418139	0
2	1570	338.324882405175	0
2	1575	338.476854809037	0
2	1580	338.882375571271	0
2	1585	340.653616814125	0
2	1590	341.426978537444	0
2	1595	341.880767486656	0
2	1600	342.130500508268	0
2	1605	342.342540282432	0
2	1610	346.963668653858	0
2	1615	347.120451989601	0
2	1620	348.088120666546	0
2	1625	349.053405862283	0
2	1630	350.010756884467	0
2	1635	350.743233529974	0
2	1640	351.334300425556	0
2	1645	352.043758489203	0
2	1650	354.003302687572	0
2	1655	354.150344774876	0
2	1660	355.591133181536	0
2	1666	356.822148562348	0
2	1671	356.860347801132	0
2	1676	357.235728887328	0
2	1681	357.575664721402	0
2	1686	358.013745683092	0
2	1691	359.021005619909	0
2	1696	360.385595178626	0
2	1701	361.925833233754	0
2	1706	362.23058246585	0
2	1711	362.575024739945	0
2	1716	364.431929300601	0
2	1721	365.914649588878	0
2	1726	366.737346592528	0
2	1731	367.497894480751	0
2	1736	367.837691011327	0
2	1741	368.942895940676	0
2	1746	371.830014903718	0
2	1751	372.051491073517	0
2	1756	372.430983510489	0
2	1761	373.309558219496	0
2	1766	376.395233146669	0
2	1771	376.520229762617	0
2	1776	377.46899930084	0
2	1781	378.597786223897	0
2	1786	379.443897430042	0
2	1791	381.657450059783	0
2	1796	382.90594994764	0
2	1801	383.309774121047	0
2	1806	384.679537467255	0
2	1811	385.837031886318	0
2	1817	386.130988432447	0.007782127595
2	1822	386.752717341142	0
2	1827	387.787451131537	0
2	1832	388.016527884741	0
2	1837	388.102692798859	0
2	1842	388.652238661555	0
2	1847	388.976954321111	0
2	1852	390.154509736828	0
2	1857	391.550815537033	0
2	1862	392.517288557423	0
2	1867	392.810989564867	0
2	1872	393.955990937247	0
2	1877	395.373271138701	0
2	1882	399.788783505206	0
2	1887	400.103737775603	0
2	1892	400.306956551325	0
2	1897	401.422949396505	0
2	1902	404.042818474647	0
2	1907	405.23137532343	0
2	1912	407.232312659884	0
2	1917	407.764727342166	0
2	1922	410.278781589585	0
2	1927	411.084623626335	0
2	1932	411.556850297612	0
2	1937	413.538842610028	0
2	1942	414.0524091739	0
2	1947	415.643300291614	0
2	1952	415.822667599793	0
2	1957	417.124129683139	0
2	1962	418.582903574102	0
2	1968	418.876860120231	0.267593381128
2	1973	419.098910774557	0
2	1978	419.485097827276	0
2	1983	419.734633085961	0
2	1988	420.004279929695	0
2	1993	420.314587575151	0
2	1998	421.072876733893	0
2	2003	422.445060233118	0
2	2008	422.515371653574	0
2	2013	422.589695088028	0
2	2018	424.77633345262	0
2	2023	426.14251871459	0
2	2028	428.962838600901	0
2	2033	429.028722083515	0
2	2038	431.037763894011	0
2	2043	431.525743836876	0
2	2048	431.67323829786	0
2	2053	432.614149239563	0
2	2058	433.679007449343	0
2	2063	433.765595341533	0
2	2068	434.410727296927	0
2	2073	434.995936691156	0
2	2078	437.371131489467	0
2	2083	437.383388393043	0
2	2088	437.538390685721	0
2	2093	438.416158447486	0
2	2098	443.22356300133	0
2	2103	445.912674253648	0
2	2108	446.052918168081	0
2	2113	446.203759973199	0
2	2119	446.497716519328	0.149280819292
2	2124	447.764681756823	0
2	2129	452.346939553368	0
2	2134	452.710226730464	0
2	2139	454.386722044644	0
2	2144	457.013309216567	0
2	2149	457.613424012715	0
2	2154	460.93768230848	0
2	2159	461.39368496408	0
2	2164	462.096369587135	0
2	2169	462.588444544422	0
2	2174	462.700839128823	0
2	2179	462.942963703068	0
2	2184	463.500973946575	0
2	2189	463.801692951705	0
2	2194	464.81257765748	0
2	2199	465.792493431553	0
2	2204	466.160735627115	0
2	2209	470.683137597386	0
2	2214	470.955250271528	0
2	2219	473.35563457217	0
2	2224	473.787755856687	0
2	2229	474.823670953663	0
2	2234	475.507877851052	0
2	2239	477.097454759472	0
2	2244	477.175424172612	0
2	2249	477.290217825043	0
2	2254	478.716419528148	0
2	2259	485.299789083271	0
2	2264	486.038562750671	0
2	2270	486.3325192968	0.141202702467
2	2275	487.080375776565	0
2	2280	489.010363166195	0
2	2285	491.579969104935	0
2	2290	491.98659942845	0
2	2295	492.975564343043	0
2	2300	495.352482778687	0
2	2305	495.677283926197	0
2	2310	496.220451677122	0
2	2315	496.924181818341	0
2	2320	498.604269000803	0
2	2325	498.638251904197	0
2	2330	499.539620935895	0
2	2335	502.051520950112	0
2	2340	502.418689798115	0
2	2345	502.49904950982	0
2	2350	502.901924948337	0
2	2355	503.062060107361	0
2	2360	503.189652986191	0
2	2365	503.196738181353	0
2	2370	504.519250179554	0
2	2375	505.909800180255	0
2	2380	505.969646036592	0
2	2385	506.147376423577	0
2	2390	509.143780023223	0
2	2395	509.585714559545	0
2	2400	510.362124277512	0
2	2405	510.46918320046	0
2	2410	510.469212704263	0
2	2415	510.688828163955	0
2	2421	511.744036126183	0
2	2426	513.833942533586	0
2	2431	515.436169256479	0
2	2436	519.137099717154	0
2	2441	519.700043061847	0
2	2446	519.878448463426	0
2	2451	520.383501874363	0
2	2456	520.397563668105	0
2	2461	521.933266737524	0
2	2466	522.027787353346	0
2	2471	522.394315563981	0
2	2476	522.577321330758	0
2	2481	523.221205435552	0
2	2486	524.505994732466	0
2	2491	525.77293955341	0
2	2496	527.382418412512	0
2	2501	527.806249721593	0
2	2506	530.576553987718	0
2	2511	531.182062902025	0
2	2516	533.283000017368	0
2	2521	534.323382891329	0
2	2526	534.380271095507	0
2	2531	534.535369103877	0
2	2536	535.20055109476	0
2	2541	535.292840767567	0
2	2546	537.744888513933	0
2	2551	538.117018993605	0
2	2556	538.336928708123	0
2	2561	538.429563734232	0
2	2566	539.463412696901	0
2	2572	539.75736924303	0.136353234502
2	2577	540.631528763777	0
2	2582	541.351135182819	0
2	2587	544.33011779517	0
2	2592	545.097273459857	0
2	2597	546.977902566907	0
2	2602	548.670373036693	0
2	2607	551.136162081991	0
2	2612	551.707408722591	0
2	2617	551.836485405914	0
2	2622	552.384228381508	0
2	2627	552.759708357618	0
2	2632	552.954342431627	0
2	2637	554.352736948402	0
2	2642	554.427504970929	0
2	2647	555.534013826176	0
2	2652	560.055163895848	0
2	2657	561.99706392636	0
2	2662	564.123541010449	0
2	2667	564.326183926888	0
2	2672	565.132489079583	0
2	2677	566.270313348319	0
2	2682	567.638551532714	0
2	2687	569.423982384129	0
2	2692	569.576053627156	0
2	2697	570.052460647306	0
2	2702	570.198554693498	0
2	2707	572.315292878802	0
2	2712	573.150003811699	0
2	2717	573.31919806944	0
2	2723	573.935602408278	0
2	2728	575.266861846297	0
2	2733	575.804457574341	0
2	2738	576.448536571674	0
2	2743	577.757723777752	0
2	2748	578.33699329712	0
2	2753	581.390293490244	0
2	2758	581.789210865474	0
2	2763	582.223964446618	0
2	2768	582.26182434795	0
2	2773	582.876512025994	0
2	2778	585.452831321916	0
2	2783	585.488739383099	0
2	2788	586.064328656078	0
2	2793	587.135459936411	0
2	2798	588.597721942641	0
2	2803	588.899225608909	0
2	2808	588.954298588608	0
2	2813	590.178413456854	0
2	2818	591.49950094669	0
2	2823	591.82771499987	0
2	2828	593.678009742899	0
2	2833	595.09381186358	0
2	2838	595.502017365164	0
2	2843	595.527092872515	0
2	2848	597.188792352942	0
2	2853	597.679581951434	0
2	2858	597.726965180226	0
2	2863	598.840441111778	0
2	2868	599.474346730245	0
2	2874	601.852394410751	0
2	2879	603.581030970886	0
2	2884	603.950731636829	0
2	2889	604.619654753541	0
2	2894	606.119055286612	0
2	2899	607.71140791224	0
2	2904	610.777362500689	0
2	2909	611.239049163016	0
2	2914	611.638767994256	0
2	2919	612.547324411011	0
2	2924	614.453525236388	0
2	2929	615.357251929371	0
2	2934	616.294614904499	0
2	2939	617.144881300338	0
2	2944	618.408469601036	0
2	2949	618.660267061559	0
2	2954	619.275616160398	0
2	2959	622.016629689752	0
2	2964	622.325053474376	0
2	2969	622.352906432684	0
2	2974	623.963386340673	0
2	2979	624.555199520119	0
2	2984	625.561087544353	0
2	2989	627.118793440759	0
2	2994	627.77101982506	0
2	2999	628.891120453907	0
2	3004	629.400907777629	0
2	3009	634.58520593279	0
2	3014	642.586703454371	0
2	3019	645.502642156574	0
2	3025	645.796598702703	0.213515899429
2	3030	646.820564309723	0
2	3035	648.404475893873	0
2	3040	648.636323984133	0
2	3045	649.210958174048	0
2	3050	653.262382940908	0
2	3055	653.621527849605	0
2	3060	653.749037900326	0
2	3065	657.851699295581	0
2	3070	659.8766568413	0
2	3075	660.560871317283	0
2	3080	660.620268163368	0
2	3085	663.94964633646	0
2	3090	664.079296455075	0
2	3095	664.375697193498	0
2	3100	664.833108008379	0
2	3105	665.525379547594	0
2	3110	669.470155148315	0
2	3115	671.673288427951	0
2	3120	673.852917285263	0
2	3125	673.879506553458	0
2	3130	673.994575633171	0
2	3135	674.233412138933	0
2	3140	675.642421060697	0
2	3145	675.778919050091	0
2	3150	678.146422122255	0
2	3155	679.73461671883	0
2	3160	679.919928724694	0
2	3165	682.58126829297	0
2	3170	682.757019866508	0
2	3176	683.050976412637	0.293546377874
2	3181	684.701559300383	0
2	3186	685.178603990781	0
2	3191	686.062824929585	0
2	3196	687.827494335749	0
2	3201	688.574434743851	0
2	3206	691.232316185705	0
2	3211	692.592583530621	0
2	3216	692.814257548818	0
2	3221	693.679309134603	0
2	3226	693.982389869848	0
2	3231	695.370640093504	0
2	3236	700.711331505502	0
2	3241	700.825029740268	0
2	3246	701.477122652676	0
2	3251	702.593791403026	0
2	3256	703.400453474822	0
2	3261	703.832701272237	0
2	3266	703.973233302398	0
2	3271	704.234074737892	0
2	3276	706.613638836372	0
2	3281	707.095076224629	0
2	3286	708.181949809815	0
2	3291	710.29380444118	0
2	3296	710.373516458799	0
2	3301	714.028445084932	0
2	3306	714.273059403144	0
2	3311	715.186038251675	0
2	3316	718.017799217292	0
2	3321	718.20049734284	0
2	3327	718.648612206797	0
2	3332	721.169910600777	0
2	3337	722.591294741136	0
2	3342	724.6497174257	0
2	3347	725.560608046508	0
2	3352	727.170635386467	0
2	3357	727.501315615743	0
2	3362	728.216894320776	0
2	3367	729.530945335901	0
2	3372	730.578763690237	0
2	3377	731.061482213632	0
2	3382	731.429969743235	0
2	3387	732.315997754884	0
2	3392	732.814054851437	0
2	3397	733.198760331232	0
2	3402	733.21595058366	0
2	3407	733.53381154242	0
2	3412	733.898928138002	0
2	3417	735.238823405	0
2	3422	736.047629676514	0
2	3427	738.663386975451	0
2	3432	739.241716697751	0
2	3437	739.74988955392	0
2	3442	740.100281997729	0
2	3447	740.640432827776	0
2	3452	740.772246720545	0
2	3457	740.887757025407	0
2	3462	741.799693607939	0
2	3467	742.228287814288	0
2	3472	742.690930522912	0
2	3478	742.984887069041	0.134667429154
2	3483	743.031837620403	0
2	3488	744.396799569855	0
2	3493	747.270034186461	0
2	3498	750.751866499523	0
2	3503	751.542728536967	0
2	3508	753.106003765503	0
2	3513	753.712531895343	0
2	3518	754.119629596489	0
2	3523	758.117086544234	0
2	3528	758.51942940201	0
2	3533	758.951013919296	0
2	3538	759.392666358843	0
2	3543	761.326694743197	0
2	3548	761.375128790179	0
2	3553	761.858675768033	0
2	3558	765.433032266012	0
2	3563	767.038198558359	0
2	3568	771.602085374765	0
2	3573	771.709715537498	0
2	3578	772.436218542762	0
2	3583	772.583794771283	0
2	3588	774.431164340911	0
2	3593	775.929617425164	0
2	3598	777.631007256041	0
2	3603	778.328292272036	0
2	3608	778.795797430785	0
2	3613	780.600024454727	0
2	3618	780.871942822685	0
2	3623	782.757041539026	0
2	3629	784.889860540405	0
2	3634	786.282419750489	0
2	3639	787.487115562642	0
2	3644	789.943083523022	0
2	3649	792.845514685733	0
2	3654	796.10694785956	0
2	3659	797.818502139159	0
2	3664	797.838793663689	0
2	3669	800.377699760199	0
2	3674	801.005801138684	0
2	3679	801.47508451488	0
2	3684	801.613761799564	0
2	3689	803.530153859765	0
2	3694	804.494400661872	0
2	3699	804.750872409752	0
2	3704	804.875621560351	0
2	3709	805.055118953394	0
2	3714	805.096240436771	0
2	3719	805.179721672659	0
2	3724	806.131988279864	0
2	3729	807.084204389918	0
2	3734	807.411442216899	0
2	3739	809.468860983966	0
2	3744	809.902027179114	0
2	3749	812.786732586254	0
2	3754	813.15459620861	0
2	3759	813.554898619655	0
2	3764	814.277198945392	0
2	3769	816.307159574456	0
2	3774	817.123182577701	0
2	3780	817.44287877305	0
2	3785	818.613904802785	0
2	3790	819.1322937565	0
2	3795	820.882087588591	0
2	3800	821.190953618323	0
2	3805	822.334643321152	0
2	3810	825.6686977193	0
2	3815	825.901703373093	0
2	3820	826.964977512424	0
2	3825	827.109880500372	0
2	3830	828.053536406454	0
2	3835	828.184169805601	0
2	3840	830.560707119679	0
2	3845	831.089046857062	0
2	3850	832.072852123578	0
2	3855	833.023335886201	0
2	3860	833.148802521613	0
2	3865	833.160794828149	0
2	3870	833.990740437885	0
2	3875	836.31378704158	0
2	3880	839.551495959303	0
2	3885	839.863662465595	0
2	3890	839.886919709681	0
2	3895	840.137091294939	0
2	3900	840.696443318449	0
2	3905	840.862797976529	0
2	3910	841.0303918505	0
2	3915	842.579168397721	0
2	3920	842.993494963073	0
2	3925	843.171222591141	0
2	3931	843.687971825203	0
2	3936	844.058782641377	0
2	3941	844.893414489002	0
2	3946	845.370805375126	0
2	3951	846.346049157202	0
2	3956	846.700974111597	0
2	3961	847.079639010566	0
2	3966	847.509347188033	0
2	3971	849.738512680939	0
2	3976	850.078708155265	0
2	3981	851.39003268805	0
2	3986	851.481526457166	0
2	3991	852.500953262575	0
2	3996	853.22809140661	0
2	4001	853.351931359994	0
2	4006	854.499547231408	0
2	4011	854.51273318841	0
2	4016	856.811678354436	0
2	4021	860.171832194795	0
2	4026	860.878279743162	0
2	4031	862.525837789321	0
2	4036	863.042786259746	0
2	4041	863.380370140915	0
2	4046	865.066507031418	0
2	4051	866.074501186082	0
2	4056	866.109604421097	0
2	4061	867.619396673844	0
2	4066	868.508058668191	0
2	4071	870.741789756121	0
2	4076	871.504462455534	0
2	4082	872.321611140156	0
2	4087	872.684461526431	0
2	4092	873.044829913908	0
2	4097	873.853077570209	0
2	4102	874.025236341476	0
2	4107	874.416411329415	0
2	4112	876.35954986061	0
2	4117	877.893149983424	0
2	4122	880.292543419809	0
2	4127	881.878026297736	0
2	4132	883.562537495195	0
2	4137	885.343729742218	0
2	4142	885.476968578174	0
2	4147	885.603386995476	0
2	4152	886.759947799734	0
2	4157	889.066189298077	0
2	4162	889.456169974084	0
2	4167	891.466215166725	0
2	4172	892.95958814333	0
2	4177	894.544564903255	0
2	4182	896.747156586071	0
2	4187	896.979954455714	0
2	4192	899.082805531877	0
2	4197	901.139300566681	0
2	4202	901.587288654969	0
2	4207	904.077234454568	0
2	4212	904.103659407167	0
2	4217	905.819617506386	0
2	4222	906.067454543719	0
2	4227	906.866807178677	0
2	4233	909.06406668285	0
2	4238	909.726451060588	0
2	4243	910.241502303774	0
2	4248	912.430180373893	0
2	4253	913.708321542519	0
2	4258	915.536700967302	0
2	4263	916.016316964438	0
2	4268	916.09325669214	0
2	4273	916.213341988441	0
2	4278	916.608815266099	0
2	4283	917.473636888367	0
2	4288	917.666950110958	0
2	4293	919.041598575373	0
2	4298	921.143998462534	0
2	4303	922.78182951295	0
2	4308	922.892615339817	0
2	4313	923.241816636216	0
2	4318	923.790382090254	0
2	4323	925.204488520072	0
2	4328	927.888874251092	0
2	4333	930.702719989171	0
2	4338	931.070521024395	0
2	4343	933.052441824693	0
2	4348	933.17586945101	0
2	4353	933.649857538632	0
2	4358	933.836551715751	0
2	4363	934.668468873673	0
2	4368	935.291991796892	0
2	4373	936.719149904828	0
2	4378	936.896270362404	0
2	4384	938.959013607076	0
2	4389	941.943756399386	0
2	4394	942.3530175908	0
2	4399	942.916968991347	0
2	4404	944.523965402634	0
2	4409	946.636770266275	0
2	4414	947.024289675391	0
2	4419	947.869893980796	0
2	4424	950.472684397575	0
2	4429	950.627769541673	0
2	4434	951.501922008212	0
2	4439	952.024207647043	0
2	4444	952.159430826792	0
2	4449	953.979155865429	0
2	4454	955.248891336777	0
2	4459	955.404641244807	0
2	4464	955.492586461007	0
2	4469	956.497984493629	0
2	4474	956.899267422568	0
2	4479	957.020375917751	0
2	4484	960.712756714512	0
2	4489	961.059329625496	0
2	4494	961.289161321015	0
2	4499	962.543878158382	0
2	4504	964.429145577368	0
2	4509	964.895645734838	0
2	4514	964.918796323892	0
2	4519	965.855088887259	0
2	4524	970.523310035609	0
2	4529	972.427393274035	0
2	4535	973.276029898561	0
2	4540	974.97561060031	0
2	4545	976.755924124314	0
2	4550	977.353127553102	0
2	4555	977.840367403839	0
2	4560	978.25475686857	0
2	4565	978.588684368058	0
2	4570	978.677413806069	0
2	4575	978.812277542674	0
2	4580	979.246083196386	0
2	4585	980.670576599386	0
2	4590	981.240433729344	0
2	4595	981.855961541215	0
2	4600	981.960328257784	0
2	4605	982.600043297176	0
2	4610	983.133177440698	0
2	4615	986.173631767835	0
2	4620	987.131113920787	0
2	4625	987.708432251157	0
2	4630	989.035407941763	0
2	4635	989.237191936819	0
2	4640	990.09639104511	0
2	4645	990.716681582861	0
2	4650	991.181338440997	0
2	4655	992.693793537994	0
2	4660	992.954229343942	0
2	4665	993.024712887395	0
2	4670	993.140875214834	0
2	4675	995.856693877777	0
2	4680	997.356983017943	0
2	4686	998.426733077794	0
2	4691	999.793510832901	0
2	4696	999.799117084104	0
3	5	0.536441138662	0
3	10	2.097203133648	0
3	15	2.934555120391	0
3	20	5.222048580665	0
3	25	7.974941057004	0
3	30	8.179813149171	0
3	35	8.501138516409	0
3	40	9.684960212456	0
3	45	9.827057052548	0
3	50	9.916077322719	0
3	55	11.46405510966	0
3	60	11.894949371708	0
3	65	14.276832165513	0
3	70	14.336583184743	0
3	75	15.409190725854	0
3	80	17.026607522675	0
3	85	18.45574889188	0
3	90	21.586592094353	0
3	95	23.772071044116	0
3	100	25.179081563235	0
3	105	25.970402212827	0
3	110	27.794637414123	0
3	115	28.592557090033	0
3	120	30.247981855859	0
3	125	32.042638883013	0
3	130	32.2165846121	0
3	135	32.904070911694	0
3	140	33.844518139103	0
3	145	34.551897039022	0
3	150	35.774815084439	0
3	156	37.01629191929	0
3	161	37.371700445514	0
3	166	38.247243624576	0
3	171	38.620752119743	0
3	176	40.237210464126	0
3	181	41.570855988842	0
3	186	42.900948111112	0
3	191	44.432303340966	0
3	196	44.624719091176	0
3	201	44.642096709974	0
3	206	47.128212471239	0
3	211	48.00446669719	0
3	216	48.390106206195	0
3	221	49.384038266297	0
3	226	50.430478846301	0
3	231	52.596844189262	0
3	236	55.278143019813	0
3	241	55.608696193671	0
3	246	58.073448025038	0
3	251	59.167069589829	0
3	256	59.231207265143	0
3	261	60.624114878417	0
3	266	60.791225183482	0
3	271	63.907856891413	0
3	276	64.982596864179	0
3	281	67.033293278204	0
3	286	67.102187007152	0
3	291	71.770190077775	0
3	296	72.443856117722	0
3	301	73.516617953453	0
3	307	76.178776697297	0
3	312	76.868997238488	0
3	317	77.252118426262	0
3	322	77.374318984599	0
3	327	77.848362680269	0
3	332	77.975564821347	0
3	337	79.142866125041	0
3	342	81.785744806973	0
3	347	82.740421146009	0
3	352	82.781828393617	0
3	357	83.073757924351	0
3	362	83.380463667354	0
3	367	83.675713842278	0
3	372	86.952818955846	0
3	377	87.304288921316	0
3	382	88.761043480966	0
3	387	90.31161131032	0
3	392	90.317106512927	0
3	397	91.721502016676	0
3	402	92.153158849032	0
3	407	94.852987159465	0
3	412	98.075389144136	0
3	417	98.646999985462	0
3	422	101.030125678729	0
3	427	101.522180990821	0
3	432	101.587836839138	0
3	437	103.642664667173	0
3	442	105.72945302442	0
3	447	106.039160445821	0
3	452	106.264962458232	0
3	458	108.993625814903	0
3	463	109.350423051701	0
3	468	111.030409116131	0
3	473	112.140157794898	0
3	478	112.46552616862	0
3	483	112.796296017915	0
3	488	112.990153145265	0
3	493	113.412074345864	0
3	498	117.301249282787	0
3	503	117.556759759775	0
3	508	119.114935739903	0
3	513	119.191392029213	0
3	518	119.490434836315	0
3	523	120.605015673687	0
3	528	121.989765629285	0
3	533	122.371384755792	0
3	538	127.796948515024	0
3	543	129.186893044499	0
3	548	129.509772165458	0
3	553	129.648067962199	0
3	558	129.882735070571	0
3	563	130.119395670881	0
3	568	131.698997354351	0
3	573	132.297064945326	0
3	578	132.722808498339	0
3	583	132.74897333355	0
3	588	136.550645793068	0
3	593	138.498168537511	0
3	598	138.661990914171	0
3	603	138.761376678894	0
3	609	139.689245564985	0
3	614	139.757460136192	0
3	619	141.59278318598	0
3	624	143.213691613936	0
3	629	144.325081969926	0
3	634	145.347554078927	0
3	639	145.832938278271	0
3	644	145.979304633156	0
3	649	148.708600317023	0
3	654	149.570871459526	0
3	659	150.260464907035	0
3	664	150.790467914126	0
3	669	150.984075776684	0
3	674	151.34291463668	0
3	679	151.806700366138	0
3	684	152.621582479482	0
3	689	153.104780010262	0
3	694	153.827535560611	0
3	699	155.026330624473	0
3	704	155.43523298304	0
3	709	157.289410479814	0
3	714	168.561928246751	0
3	719	171.393813976913	0
3	724	172.079339126075	0
3	729	172.088244516084	0
3	734	178.835254429009	0
3	739	180.469467011983	0
3	744	180.524318524567	0
3	749	181.074183040357	0
3	754	182.483820482705	0
3	760	183.515856649712	0
3	765	184.092207097387	0
3	770	185.228202629948	0
3	775	187.302826494725	0
3	780	188.558685115722	0
3	785	189.429012807025	0
3	790	192.693378658256	0
3	795	193.057343791354	0
3	800	193.250681614432	0
3	805	197.40162272248	0
3	810	198.713682594023	0
3	815	200.722694777959	0
3	820	201.240317644177	0
3	825	201.473844989373	0
3	830	202.124331312682	0
3	835	202.983192580931	0
3	840	203.820975012858	0
3	845	203.904039914802	0
3	850	203.906829687843	0
3	855	204.518265452141	0
3	860	205.14836343418	0
3	865	206.131183202701	0
3	870	208.405857142414	0
3	875	208.450817561282	0
3	880	209.381137112551	0
3	885	209.774729500006	0
3	890	210.148241906839	0
3	895	210.456961038561	0
3	900	211.887103418089	0
3	905	215.379646066537	0
3	911	217.719611669566	0
3	916	219.533417936204	0
3	921	219.650985048942	0
3	926	219.763275909697	0
3	931	221.302979337249	0
3	936	221.463916017029	0
3	941	222.24032740713	0
3	946	224.710921278891	0
3	951	225.153245724938	0
3	956	225.821099905589	0
3	961	226.150360274176	0
3	966	229.056028858087	0
3	971	229.183382876752	0
3	976	229.264400341173	0
3	981	229.412227881772	0
3	986	230.229004188311	0
3	991	230.34002615563	0
3	996	231.197705697572	0
3	1001	231.660800338037	0
3	1006	231.849258793133	0
3	1011	231.899458583833	0
3	1016	232.1688851526	0
3	1021	232.177988249724	0
3	1026	232.21539159547	0
3	1031	232.850891667111	0
3	1036	233.252293781892	0
3	1041	233.846143044363	0
3	1046	234.774085647825	0
3	1051	236.116776480961	0
3	1056	236.672862620542	0
3	1062	236.966819166671	2
3	1067	238.30551400236	0
3	1072	238.533309284688	0
3	1077	239.73395663736	0
3	1082	240.620325786	0
3	1087	240.883680490285	0
3	1092	240.967217180334	0
3	1097	241.010686805125	0
3	1102	243.049903129303	0
3	1107	244.033309912279	0
3	1112	244.238153799168	0
3	1117	246.244252679502	0
3	1122	247.844828178432	0
3	1127	248.984538722573	0
3	1132	250.635796943812	0
3	1137	250.659662262798	0
3	1142	252.050680195994	0
3	1147	252.54371044593	0
3	1152	253.103847852377	0
3	1157	253.549167453228	0
3	1162	254.220701691361	0
3	1167	254.299247196517	0
3	1172	255.047461835276	0
3	1177	255.710412358676	0
3	1182	255.838229593692	0
3	1187	257.542196386902	0
3	1192	258.847010903426	0
3	1197	259.522210590468	0
3	1202	260.152801715312	0
3	1207	261.249729465489	0
3	1213	261.543686011618	2
3	1218	262.717033409559	0
3	1223	264.427852694469	0
3	1228	265.457561516467	0
3	1233	267.27864541084	0
3	1238	268.343306061092	0
3	1243	269.179981429562	0
3	1248	269.323730901062	0
3	1253	271.099960074968	0
3	1258	273.561042652332	0
3	1263	274.119255354234	0
3	1268	274.774606387895	0
3	1273	275.993359781644	0
3	1278	276.289329378544	0
3	1283	277.655282616453	0
3	1288	280.086103466925	0
3	1293	281.491445250627	0
3	1298	281.648456048065	0
3	1303	281.665653790514	0
3	1308	283.116834677419	0
3	1313	283.533750748173	0
3	1318	284.687277983152	0
3	1323	285.232640871328	0
3	1328	286.628809118712	0
3	1333	288.623181212923	0
3	1338	288.713690900587	0
3	1343	289.972948062282	0
3	1348	289.982218573583	0
3	1353	291.288732942931	0
3	1358	291.599947229636	0
3	1364	296.538931077384	0
3	1369	297.820340803873	0
3	1374	297.828717109798	0
3	1379	298.525679665484	0
3	1384	298.929196920955	0
3	1389	298.97441680567	0
3	1394	301.000620008774	0
3	1399	305.031636331851	0
3	1404	305.298636701733	0
3	1409	305.925661513319	0
3	1414	305.98137509776	0
3	1419	306.477574885965	0
3	1424	307.279488068094	0
3	1429	308.043347217771	0
3	1434	310.868281006203	0
3	1439	311.053593826146	0
3	1444	312.124105352054	0
3	1449	316.372470000007	0
3	1454	316.933877032422	0
3	1459	317.425634826647	0
3	1464	318.504903563962	0
3	1469	318.83549486824	0
3	1474	319.904799724197	0
3	1479	321.231746035628	0
3	1484	321.452164654345	0
3	1489	322.614274395712	0
3	1494	323.349278489293	0
3	1499	323.690627499137	0
3	1504	324.277193417312	0
3	1509	326.0485125345	0
3	1517	326.342469080629	2
3	1520	326.342494418533	2
3	1525	326.998185316085	0
3	1530	327.829155451882	0
3	1535	330.671874221873	0
3	1540	331.205559303782	0
3	1545	331.910750248356	0
3	1550	333.393818289343	0
3	1555	336.3562011551	0
3	1560	336.714963203159	0
3	1565	336.817697418139	0
3	1570	338.324882405175	0
3	1575	338.476854809037	0
3	1580	338.882375571271	0
3	1585	340.653616814125	0
3	1590	341.426978537444	0
3	1595	341.880767486656	0
3	1600	342.130500508268	0
3	1605	342.342540282432	0
3	1610	346.963668653858	0
3	1615	347.120451989601	0
3	1620	348.088120666546	0
3	1625	349.053405862283	0
3	1630	350.010756884467	0
3	1635	350.743233529974	0
3	1640	351.334300425556	0
3	1645	352.043758489203	0
3	1650	354.003302687572	0
3	1655	354.150344774876	0
3	1660	355.591133181536	0
3	1666	356.822148562348	0
3	1671	356.860347801132	0
3	1676	357.235728887328	0
3	1681	357.575664721402	0
3	1686	358.013745683092	0
3	1691	359.021005619909	0
3	1696	360.385595178626	0
3	1701	361.925833233754	0
3	1706	362.23058246585	0
3	1711	362.575024739945	0
3	1716	364.431929300601	0
3	1721	365.914649588878	0
3	1726	366.737346592528	0
3	1731	367.497894480751	0
3	1736	367.837691011327	0
3	1741	368.942895940676	0
3	1746	371.830014903718	0
3	1751	372.051491073517	0
3	1756	372.430983510489	0
3	1761	373.309558219496	0
3	1766	376.395233146669	0
3	1771	376.520229762617	0
3	1776	377.46899930084	0
3	1781	378.597786223897	0
3	1786	379.443897430042	0
3	1791	381.657450059783	0
3	1796	382.90594994764	0
3	1801	383.309774121047	0
3	1806	384.679537467255	0
3	1811	385.837031886318	0
3	1817	386.130988432447	2
3	1822	386.752717341142	0
3	1827	387.787451131537	0
3	1832	388.016527884741	0
3	1837	388.102692798859	0
3	1842	388.652238661555	0
3	1847	388.976954321111	0
3	1852	390.154509736828	0
3	1857	391.550815537033	0
3	1862	392.517288557423	0
3	1867	392.810989564867	0
3	1872	393.955990937247	0
3	1877	395.373271138701	0
3	1882	399.788783505206	0
3	1887	400.103737775603	0
3	1892	400.306956551325	0
3	1897	401.422949396505	0
3	1902	404.042818474647	0
3	1907	405.23137532343	0
3	1912	407.232312659884	0
3	1917	407.764727342166	0
3	1922	410.278781589585	0
3	1927	411.084623626335	0
3	1932	411.556850297612	0
3	1937	413.538842610028	0
3	1942	414.0524091739	0
3	1947	415.643300291614	0
3	1952	415.822667599793	0
3	1957	417.124129683139	0
3	1962	418.582903574102	0
3	1968	418.876860120231	2
3	1973	419.098910774557	0
3	1978	419.485097827276	0
3	1983	419.734633085961	0
3	1988	420.004279929695	0
3	1993	420.314587575151	0
3	1998	421.072876733893	0
3	2003	422.445060233118	0
3	2008	422.515371653574	0
3	2013	422.589695088028	0
3	2018	424.77633345262	0
3	2023	426.14251871459	0
3	2028	428.962838600901	0
3	2033	429.028722083515	0
3	2038	431.037763894011	0
3	2043	431.525743836876	0
3	2048	431.67323829786	0
3	2053	432.614149239563	0
3	2058	433.679007449343	0
3	2063	433.765595341533	0
3	2068	434.410727296927	0
3	2073	434.995936691156	0
3	2078	437.371131489467	0
3	2083	437.383388393043	0
3	2088	437.538390685721	0
3	2093	438.416158447486	0
3	2098	443.22356300133	0
3	2103	445.912674253648	0
3	2108	446.052918168081	0
3	2113	446.203759973199	0
3	2119	446.497716519328	2
3	2124	447.764681756823	0
3	2129	452.346939553368	0
3	2134	452.710226730464	0
3	2139	454.386722044644	0
3	2144	457.013309216567	0
3	2149	457.613424012715	0
3	2154	460.93768230848	0
3	2159	461.39368496408	0
3	2164	462.096369587135	0
3	2169	462.588444544422	0
3	2174	462.700839128823	0
3	2179	462.942963703068	0
3	2184	463.500973946575	0
3	2189	463.801692951705	0
3	2194	464.81257765748	0
3	2199	465.792493431553	0
3	2204	466.160735627115	0
3	2209	470.683137597386	0
3	2214	470.955250271528	0
3	2219	473.35563457217	0
3	2224	473.787755856687	0
3	2229	474.823670953663	0
3	2234	475.507877851052	0
3	2239	477.097454759472	0
3	2244	477.175424172612	0
3	2249	477.290217825043	0
3	2254	478.716419528148	0
3	2259	485.299789083271	0
3	2264	486.038562750671	0
3	2270	486.3325192968	2
3	2275	487.080375776565	0
3	2280	489.010363166195	0
3	2285	491.579969104935	0
3	2290	491.98659942845	0
3	2295	492.975564343043	0
3	2300	495.352482778687	0
3	2305	495.677283926197	0
3	2310	496.220451677122	0
3	2315	496.924181818341	0
3	2320	498.604269000803	0
3	2325	498.638251904197	0
3	2330	499.539620935895	0
3	2335	502.051520950112	0
3	2340	502.418689798115	0
3	2345	502.49904950982	0
3	2350	502.901924948337	0
3	2355	503.062060107361	0
3	2360	503.189652986191	0
3	2365	503.196738181353	0
3	2370	504.519250179554	0
3	2375	505.909800180255	0
3	2380	505.969646036592	0
3	2385	506.147376423577	0
3	2390	509.143780023223	0
3	2395	509.585714559545	0
3	2400	510.362124277512	0
3	2405	510.46918320046	0
3	2410	510.469212704263	0
3	2415	510.688828163955	0
3	2421	511.744036126183	0
3	2426	513.833942533586	0
3	2431	515.436169256479	0
3	2436	519.137099717154	0
3	2441	519.700043061847	0
3	2446	519.878448463426	0
3	2451	520.383501874363	0
3	2456	520.397563668105	0
3	2461	521.933266737524	0
3	2466	522.027787353346	0
3	2471	522.394315563981	0
3	2476	522.577321330758	0
3	2481	523.221205435552	0
3	2486	524.505994732466	0
3	2491	525.77293955341	0
3	2496	527.382418412512	0
3	2501	527.806249721593	0
3	2506	530.576553987718	0
3	2511	531.182062902025	0
3	2516	533.283000017368	0
3	2521	534.323382891329	0
3	2526	534.380271095507	0
3	2531	534.535369103877	0
3	2536	535.20055109476	0
3	2541	535.292840767567	0
3	2546	537.744888513933	0
3	2551	538.117018993605	0
3	2556	538.336928708123	0
3	2561	538.429563734232	0
3	2566	539.463412696901	0
3	2572	539.75736924303	2
3	2577	540.631528763777	0
3	2582	541.351135182819	0
3	2587	544.33011779517	0
3	2592	545.097273459857	0
3	2597	546.977902566907	0
3	2602	548.670373036693	0
3	2607	551.136162081991	0
3	2612	551.707408722591	0
3	2617	551.836485405914	0
3	2622	552.384228381508	0
3	2627	552.759708357618	0
3	2632	552.954342431627	0
3	2637	554.352736948402	0
3	2642	554.427504970929	0
3	2647	555.534013826176	0
3	2652	560.055163895848	0
3	2657	561.99706392636	0
3	2662	564.123541010449	0
3	2667	564.326183926888	0
3	2672	565.132489079583	0
3	2677	566.270313348319	0
3	2682	567.638551532714	0
3	2687	569.423982384129	0
3	2692	569.576053627156	0
3	2697	570.052460647306	0
3	2702	570.198554693498	0
3	2707	572.315292878802	0
3	2712	573.150003811699	0
3	2717	573.31919806944	0
3	2723	573.935602408278	0
3	2728	575.266861846297	0
3	2733	575.804457574341	0
3	2738	576.448536571674	0
3	2743	577.757723777752	0
3	2748	578.33699329712	0
3	2753	581.390293490244	0
3	2758	581.789210865474	0
3	2763	582.223964446618	0
3	2768	582.26182434795	0
3	2773	582.876512025994	0
3	2778	585.452831321916	0
3	2783	585.488739383099	0
3	2788	586.064328656078	0
3	2793	587.135459936411	0
3	2798	588.597721942641	0
3	2803	588.899225608909	0
3	2808	588.954298588608	0
3	2813	590.178413456854	0
3	2818	591.49950094669	0
3	2823	591.82771499987	0
3	2828	593.678009742899	0
3	2833	595.09381186358	0
3	2838	595.502017365164	0
3	2843	595.527092872515	0
3	2848	597.188792352942	0
3	2853	597.679581951434	0
3	2858	597.726965180226	0
3	2863	598.840441111778	0
3	2868	599.474346730245	0
3	2874	601.852394410751	0
3	2879	603.581030970886	0
3	2884	603.950731636829	0
3	2889	604.619654753541	0
3	2894	606.119055286612	0
3	2899	607.71140791224	0
3	2904	610.777362500689	0
3	2909	611.239049163016	0
3	2914	611.638767994256	0
3	2919	612.547324411011	0
3	2924	614.453525236388	0
3	2929	615.357251929371	0
3	2934	616.294614904499	0
3	2939	617.144881300338	0
3	2944	618.408469601036	0
3	2949	618.660267061559	0
3	2954	619.275616160398	0
3	2959	622.016629689752	0
3	2964	622.325053474376	0
3	2969	622.352906432684	0
3	2974	623.963386340673	0
3	2979	624.555199520119	0
3	2984	625.561087544353	0
3	2989	627.118793440759	0
3	2994	627.77101982506	0
3	2999	628.891120453907	0
3	3004	629.400907777629	0
3	3009	634.58520593279	0
3	3014	642.586703454371	0
3	3019	645.502642156574	0
3	3025	645.796598702703	2
3	3030	646.820564309723	0
3	3035	648.404475893873	0
3	3040	648.636323984133	0
3	3045	649.210958174048	0
3	3050	653.262382940908	0
3	3055	653.621527849605	0
3	3060	653.749037900326	0
3	3065	657.851699295581	0
3	3070	659.8766568413	0
3	3075	660.560871317283	0
3	3080	660.620268163368	0
3	3085	663.94964633646	0
3	3090	664.079296455075	0
3	3095	664.375697193498	0
3	3100	664.833108008379	0
3	3105	665.525379547594	0
3	3110	669.470155148315	0
3	3115	671.673288427951	0
3	3120	673.852917285263	0
3	3125	673.879506553458	0
3	3130	673.994575633171	0
3	3135	674.233412138933	0
3	3140	675.642421060697	0
3	3145	675.778919050091	0
3	3150	678.146422122255	0
3	3155	679.73461671883	0
3	3160	679.919928724694	0
3	3165	682.58126829297	0
3	3170	682.757019866508	0
3	3176	683.050976412637	2
3	3181	684.701559300383	0
3	3186	685.178603990781	0
3	3191	686.062824929585	0
3	3196	687.827494335749	0
3	3201	688.574434743851	0
3	3206	691.232316185705	0
3	3211	692.592583530621	0
3	3216	692.814257548818	0
3	3221	693.679309134603	0
3	3226	693.982389869848	0
3	3231	695.370640093504	0
3	3236	700.711331505502	0
3	3241	700.825029740268	0
3	3246	701.477122652676	0
3	3251	702.593791403026	0
3	3256	703.400453474822	0
3	3261	703.832701272237	0
3	3266	703.973233302398	0
3	3271	704.234074737892	0
3	3276	706.613638836372	0
3	3281	707.095076224629	0
3	3286	708.181949809815	0
3	3291	710.29380444118	0
3	3296	710.373516458799	0
3	3301	714.028445084932	0
3	3306	714.273059403144	0
3	3311	715.186038251675	0
3	3316	718.017799217292	0
3	3321	718.20049734284	0
3	3327	718.648612206797	0
3	3332	721.169910600777	0
3	3337	722.591294741136	0
3	3342	724.6497174257	0
3	3347	725.560608046508	0
3	3352	727.170635386467	0
3	3357	727.501315615743	0
3	3362	728.216894320776	0
3	3367	729.530945335901	0
3	3372	730.578763690237	0
3	3377	731.061482213632	0
3	3382	731.429969743235	0
3	3387	732.315997754884	0
3	3392	732.814054851437	0
3	3397	733.198760331232	0
3	3402	733.21595058366	0
3	3407	733.53381154242	0
3	3412	733.898928138002	0
3	3417	735.238823405	0
3	3422	736.047629676514	0
3	3427	738.663386975451	0
3	3432	739.241716697751	0
3	3437	739.74988955392	0
3	3442	740.100281997729	0
3	3447	740.640432827776	0
3	3452	740.772246720545	0
3	3457	740.887757025407	0
3	3462	741.799693607939	0
3	3467	742.228287814288	0
3	3472	742.690930522912	0
3	3478	742.984887069041	2
3	3483	743.031837620403	0
3	3488	744.396799569855	0
3	3493	747.270034186461	0
3	3498	750.751866499523	0
3	3503	751.542728536967	0
3	3508	753.106003765503	0
3	3513	753.712531895343	0
3	3518	754.119629596489	0
3	3523	758.117086544234	0
3	3528	758.51942940201	0
3	3533	758.951013919296	0
3	3538	759.392666358843	0
3	3543	761.326694743197	0
3	3548	761.375128790179	0
3	3553	761.858675768033	0
3	3558	765.433032266012	0
3	3563	767.038198558359	0
3	3568	771.602085374765	0
3	3573	771.709715537498	0
3	3578	772.436218542762	0
3	3583	772.583794771283	0
3	3588	774.431164340911	0
3	3593	775.929617425164	0
3	3598	777.631007256041	0
3	3603	778.328292272036	0
3	3608	778.795797430785	0
3	3613	780.600024454727	0
3	3618	780.871942822685	0
3	3623	782.757041539026	0
[...]
7	900	211.887103418089	0
7	905	215.379646066537	0
7	911	217.719611669566	0
7	916	219.533417936204	0
7	921	219.650985048942	0
7	926	219.763275909697	0
7	931	221.302979337249	0
7	936	221.463916017029	0
7	941	222.24032740713	0
7	946	224.710921278891	0
7	951	225.153245724938	0
7	956	225.821099905589	0
7	961	226.150360274176	0
7	966	229.056028858087	0
7	971	229.183382876752	0
7	976	229.264400341173	0
7	981	229.412227881772	0
7	986	230.229004188311	0
7	991	230.34002615563	0
7	996	231.197705697572	0
7	1001	231.660800338037	0
7	1006	231.849258793133	0
7	1011	231.899458583833	0
7	1016	232.1688851526	0
7	1021	232.177988249724	0
7	1026	232.21539159547	0
7	1031	232.850891667111	0
7	1036	233.252293781892	0
7	1041	233.846143044363	0
7	1046	234.774085647825	0
7	1051	236.116776480961	0
7	1056	236.672862620542	0
7	1062	236.966819166671	0
7	1067	238.30551400236	0
7	1072	238.533309284688	0
7	1077	239.73395663736	0
7	1082	240.620325786	0
7	1087	240.883680490285	0
7	1092	240.967217180334	0
7	1097	241.010686805125	0
7	1102	243.049903129303	0
7	1107	244.033309912279	0
7	1112	244.238153799168	0
7	1117	246.244252679502	0
7	1122	247.844828178432	0
7	1127	248.984538722573	0
7	1132	250.635796943812	0
7	1137	250.659662262798	0
7	1142	252.050680195994	0
7	1147	252.54371044593	0
7	1152	253.103847852377	0
7	1157	253.549167453228	0
7	1162	254.220701691361	0
7	1167	254.299247196517	0
7	1172	255.047461835276	0
7	1177	255.710412358676	0
7	1182	255.838229593692	0
7	1187	257.542196386902	0
7	1192	258.847010903426	0
7	1197	259.522210590468	0
7	1202	260.152801715312	0
7	1207	261.249729465489	0
7	1213	261.543686011618	0
7	1218	262.717033409559	0
7	1223	264.427852694469	0
7	1228	265.457561516467	0
7	1233	267.27864541084	0
7	1238	268.343306061092	0
7	1243	269.179981429562	0
7	1248	269.323730901062	0
7	1253	271.099960074968	0
7	1258	273.561042652332	0
7	1263	274.119255354234	0
7	1268	274.774606387895	0
7	1273	275.993359781644	0
7	1278	276.289329378544	0
7	1283	277.655282616453	0
7	1288	280.086103466925	0
7	1293	281.491445250627	0
7	1298	281.648456048065	0
7	1303	281.665653790514	0
7	1308	283.116834677419	0
7	1313	283.533750748173	0
7	1318	284.687277983152	0
7	1323	285.232640871328	0
7	1328	286.628809118712	0
7	1333	288.623181212923	0
7	1338	288.713690900587	0
7	1343	289.972948062282	0
7	1348	289.982218573583	0
7	1353	291.288732942931	0
7	1358	291.599947229636	0
7	1364	296.538931077384	0
7	1369	297.820340803873	0
7	1374	297.828717109798	0
7	1379	298.525679665484	0
7	1384	298.929196920955	0
7	1389	298.97441680567	0
7	1394	301.000620008774	0
7	1399	305.031636331851	0
7	1404	305.298636701733	0
7	1409	305.925661513319	0
7	1414	305.98137509776	0
7	1419	306.477574885965	0
7	1424	307.279488068094	0
7	1429	308.043347217771	0
7	1434	310.868281006203	0
7	1439	311.053593826146	0
7	1444	312.124105352054	0
7	1449	316.372470000007	0
7	1454	316.933877032422	0
7	1459	317.425634826647	0
7	1464	318.504903563962	0
7	1469	318.83549486824	0
7	1474	319.904799724197	0
7	1479	321.231746035628	0
7	1484	321.452164654345	0
7	1489	322.614274395712	0
7	1494	323.349278489293	0
7	1499	323.690627499137	0
7	1504	324.277193417312	0
7	1509	326.0485125345	0
7	1517	326.342469080629	0
7	1520	326.342494418533	0
7	1525	326.998185316085	0
7	1530	327.829155451882	0
7	1535	330.671874221873	0
7	1540	331.205559303782	0
7	1545	331.910750248356	0
7	1550	333.393818289343	0
7	1555	336.3562011551	0
7	1560	336.714963203159	0
7	1565	336.817697418139	0
7	1570	338.324882405175	0
7	1575	338.476854809037	0
7	1580	338.882375571271	0
7	1585	340.653616814125	0
7	1590	341.426978537444	0
7	1595	341.880767486656	0
7	1600	342.130500508268	0
7	1605	342.342540282432	0
7	1610	346.963668653858	0
7	1615	347.120451989601	0
7	1620	348.088120666546	0
7	1625	349.053405862283	0
7	1630	350.010756884467	0
7	1635	350.743233529974	0
7	1640	351.334300425556	0
7	1645	352.043758489203	0
7	1650	354.003302687572	0
7	1655	354.150344774876	0
7	1660	355.591133181536	0
7	1666	356.822148562348	0
7	1671	356.860347801132	0
7	1676	357.235728887328	0
7	1681	357.575664721402	0
7	1686	358.013745683092	0
7	1691	359.021005619909	0
7	1696	360.385595178626	0
7	1701	361.925833233754	0
7	1706	362.23058246585	0
7	1711	362.575024739945	0
7	1716	364.431929300601	0
7	1721	365.914649588878	0
7	1726	366.737346592528	0
7	1731	367.497894480751	0
7	1736	367.837691011327	0
7	1741	368.942895940676	0
7	1746	371.830014903718	0
7	1751	372.051491073517	0
7	1756	372.430983510489	0
7	1761	373.309558219496	0
7	1766	376.395233146669	0
7	1771	376.520229762617	0
7	1776	377.46899930084	0
7	1781	378.597786223897	0
7	1786	379.443897430042	0
7	1791	381.657450059783	0
7	1796	382.90594994764	0
7	1801	383.309774121047	0
7	1806	384.679537467255	0
7	1811	385.837031886318	0
7	1817	386.130988432447	0
7	1822	386.752717341142	0
7	1827	387.787451131537	0
7	1832	388.016527884741	0
7	1837	388.102692798859	0
7	1842	388.652238661555	0
7	1847	388.976954321111	0
7	1852	390.154509736828	0
7	1857	391.550815537033	0
7	1862	392.517288557423	0
7	1867	392.810989564867	0
7	1872	393.955990937247	0
7	1877	395.373271138701	0
7	1882	399.788783505206	0
7	1887	400.103737775603	0
7	1892	400.306956551325	0
7	1897	401.422949396505	0
7	1902	404.042818474647	0
7	1907	405.23137532343	0
7	1912	407.232312659884	0
7	1917	407.764727342166	0
7	1922	410.278781589585	0
7	1927	411.084623626335	0
7	1932	411.556850297612	0
7	1937	413.538842610028	0
7	1942	414.0524091739	0
7	1947	415.643300291614	0
7	1952	415.822667599793	0
7	1957	417.124129683139	0
7	1962	418.582903574102	0
7	1968	418.876860120231	0
7	1973	419.098910774557	0
7	1978	419.485097827276	0
7	1983	419.734633085961	0
7	1988	420.004279929695	0
7	1993	420.314587575151	0
7	1998	421.072876733893	0
7	2003	422.445060233118	0
7	2008	422.515371653574	0
7	2013	422.589695088028	0
7	2018	424.77633345262	0
7	2023	426.14251871459	0
7	2028	428.962838600901	0
7	2033	429.028722083515	0
7	2038	431.037763894011	0
7	2043	431.525743836876	0
7	2048	431.67323829786	0
7	2053	432.614149239563	0
7	2058	433.679007449343	0
7	2063	433.765595341533	0
7	2068	434.410727296927	0
7	2073	434.995936691156	0
7	2078	437.371131489467	0
7	2083	437.383388393043	0
7	2088	437.538390685721	0
7	2093	438.416158447486	0
7	2098	443.22356300133	0
7	2103	445.912674253648	0
7	2108	446.052918168081	0
7	2113	446.203759973199	0
7	2119	446.497716519328	0
7	2124	447.764681756823	0
7	2129	452.346939553368	0
7	2134	452.710226730464	0
7	2139	454.386722044644	0
7	2144	457.013309216567	0
7	2149	457.613424012715	0
7	2154	460.93768230848	0
7	2159	461.39368496408	0
7	2164	462.096369587135	0
7	2169	462.588444544422	0
7	2174	462.700839128823	0
7	2179	462.942963703068	0
7	2184	463.500973946575	0
7	2189	463.801692951705	0
7	2194	464.81257765748	0
7	2199	465.792493431553	0
7	2204	466.160735627115	0
7	2209	470.683137597386	0
7	2214	470.955250271528	0
7	2219	473.35563457217	0
7	2224	473.787755856687	0
7	2229	474.823670953663	0
7	2234	475.507877851052	0
7	2239	477.097454759472	0
7	2244	477.175424172612	0
7	2249	477.290217825043	0
7	2254	478.716419528148	0
7	2259	485.299789083271	0
7	2264	486.038562750671	0
7	2270	486.3325192968	0
7	2275	487.080375776565	0
7	2280	489.010363166195	0
7	2285	491.579969104935	0
7	2290	491.98659942845	0
7	2295	492.975564343043	0
7	2300	495.352482778687	0
7	2305	495.677283926197	0
7	2310	496.220451677122	0
7	2315	496.924181818341	0
7	2320	498.604269000803	0
7	2325	498.638251904197	0
7	2330	499.539620935895	0
7	2335	502.051520950112	0
7	2340	502.418689798115	0
7	2345	502.49904950982	0
7	2350	502.901924948337	0
7	2355	503.062060107361	0
7	2360	503.189652986191	0
7	2365	503.196738181353	0
7	2370	504.519250179554	0
7	2375	505.909800180255	0
7	2380	505.969646036592	0
7	2385	506.147376423577	0
7	2390	509.143780023223	0
7	2395	509.585714559545	0
7	2400	510.362124277512	0
7	2405	510.46918320046	0
7	2410	510.469212704263	0
7	2415	510.688828163955	0
7	2421	511.744036126183	0
7	2426	513.833942533586	0
7	2431	515.436169256479	0
7	2436	519.137099717154	0
7	2441	519.700043061847	0
7	2446	519.878448463426	0
7	2451	520.383501874363	0
7	2456	520.397563668105	0
7	2461	521.933266737524	0
7	2466	522.027787353346	0
7	2471	522.394315563981	0
7	2476	522.577321330758	0
7	2481	523.221205435552	0
7	2486	524.505994732466	0
7	2491	525.77293955341	0
7	2496	527.382418412512	0
7	2501	527.806249721593	0
7	2506	530.576553987718	0
7	2511	531.182062902025	0
7	2516	533.283000017368	0
7	2521	534.323382891329	0
7	2526	534.380271095507	0
7	2531	534.535369103877	0
7	2536	535.20055109476	0
7	2541	535.292840767567	0
7	2546	537.744888513933	0
7	2551	538.117018993605	0
7	2556	538.336928708123	0
7	2561	538.429563734232	0
7	2566	539.463412696901	0
7	2572	539.75736924303	0
7	2577	540.631528763777	0
7	2582	541.351135182819	0
7	2587	544.33011779517	0
7	2592	545.097273459857	0
7	2597	546.977902566907	0
7	2602	548.670373036693	0
7	2607	551.136162081991	0
7	2612	551.707408722591	0
7	2617	551.836485405914	0
7	2622	552.384228381508	0
7	2627	552.759708357618	0
7	2632	552.954342431627	0
7	2637	554.352736948402	0
7	2642	554.427504970929	0
7	2647	555.534013826176	0
7	2652	560.055163895848	0
7	2657	561.99706392636	0
7	2662	564.123541010449	0
7	2667	564.326183926888	0
7	2672	565.132489079583	0
7	2677	566.270313348319	0
7	2682	567.638551532714	0
7	2687	569.423982384129	0
7	2692	569.576053627156	0
7	2697	570.052460647306	0
7	2702	570.198554693498	0
7	2707	572.315292878802	0
7	2712	573.150003811699	0
7	2717	573.31919806944	0
7	2723	573.935602408278	0
7	2728	575.266861846297	0
7	2733	575.804457574341	0
7	2738	576.448536571674	0
7	2743	577.757723777752	0
7	2748	578.33699329712	0
7	2753	581.390293490244	0
7	2758	581.789210865474	0
7	2763	582.223964446618	0
7	2768	582.26182434795	0
7	2773	582.876512025994	0
7	2778	585.452831321916	0
7	2783	585.488739383099	0
7	2788	586.064328656078	0
7	2793	587.135459936411	0
7	2798	588.597721942641	0
7	2803	588.899225608909	0
7	2808	588.954298588608	0
7	2813	590.178413456854	0
7	2818	591.49950094669	0
7	2823	591.82771499987	0
7	2828	593.678009742899	0
7	2833	595.09381186358	0
7	2838	595.502017365164	0
7	2843	595.527092872515	0
7	2848	597.188792352942	0
7	2853	597.679581951434	0
7	2858	597.726965180226	0
7	2863	598.840441111778	0
7	2868	599.474346730245	0
7	2874	601.852394410751	0
7	2879	603.581030970886	0
7	2884	603.950731636829	0
7	2889	604.619654753541	0
7	2894	606.119055286612	0
7	2899	607.71140791224	0
7	2904	610.777362500689	0
7	2909	611.239049163016	0
7	2914	611.638767994256	0
7	2919	612.547324411011	0
7	2924	614.453525236388	0
7	2929	615.357251929371	0
7	2934	616.294614904499	0
7	2939	617.144881300338	0
7	2944	618.408469601036	0
7	2949	618.660267061559	0
7	2954	619.275616160398	0
7	2959	622.016629689752	0
7	2964	622.325053474376	0
7	2969	622.352906432684	0
7	2974	623.963386340673	0
7	2979	624.555199520119	0
7	2984	625.561087544353	0
7	2989	627.118793440759	0
7	2994	627.77101982506	0
7	2999	628.891120453907	0
7	3004	629.400907777629	0
7	3009	634.58520593279	0
7	3014	642.586703454371	0
7	3019	645.502642156574	0
7	3025	645.796598702703	0
7	3030	646.820564309723	0
7	3035	648.404475893873	0
7	3040	648.636323984133	0
7	3045	649.210958174048	0
7	3050	653.262382940908	0
7	3055	653.621527849605	0
7	3060	653.749037900326	0
7	3065	657.851699295581	0
7	3070	659.8766568413	0
7	3075	660.560871317283	0
7	3080	660.620268163368	0
7	3085	663.94964633646	0
7	3090	664.079296455075	0
7	3095	664.375697193498	0
7	3100	664.833108008379	0
7	3105	665.525379547594	0
7	3110	669.470155148315	0
7	3115	671.673288427951	0
7	3120	673.852917285263	0
7	3125	673.879506553458	0
7	3130	673.994575633171	0
7	3135	674.233412138933	0
7	3140	675.642421060697	0
7	3145	675.778919050091	0
7	3150	678.146422122255	0
7	3155	679.73461671883	0
7	3160	679.919928724694	0
7	3165	682.58126829297	0
7	3170	682.757019866508	0
7	3176	683.050976412637	0
7	3181	684.701559300383	0
7	3186	685.178603990781	0
7	3191	686.062824929585	0
7	3196	687.827494335749	0
7	3201	688.574434743851	0
7	3206	691.232316185705	0
7	3211	692.592583530621	0
7	3216	692.814257548818	0
7	3221	693.679309134603	0
7	3226	693.982389869848	0
7	3231	695.370640093504	0
7	3236	700.711331505502	0
7	3241	700.825029740268	0
7	3246	701.477122652676	0
7	3251	702.593791403026	0
7	3256	703.400453474822	0
7	3261	703.832701272237	0
7	3266	703.973233302398	0
7	3271	704.234074737892	0
7	3276	706.613638836372	0
7	3281	707.095076224629	0
7	3286	708.181949809815	0
7	3291	710.29380444118	0
7	3296	710.373516458799	0
7	3301	714.028445084932	0
7	3306	714.273059403144	0
7	3311	715.186038251675	0
7	3316	718.017799217292	0
7	3321	718.20049734284	0
7	3327	718.648612206797	0
7	3332	721.169910600777	0
7	3337	722.591294741136	0
7	3342	724.6497174257	0
7	3347	725.560608046508	0
7	3352	727.170635386467	0
7	3357	727.501315615743	0
7	3362	728.216894320776	0
7	3367	729.530945335901	0
7	3372	730.578763690237	0
7	3377	731.061482213632	0
7	3382	731.429969743235	0
7	3387	732.315997754884	0
7	3392	732.814054851437	0
7	3397	733.198760331232	0
7	3402	733.21595058366	0
7	3407	733.53381154242	0
7	3412	733.898928138002	0
7	3417	735.238823405	0
7	3422	736.047629676514	0
7	3427	738.663386975451	0
7	3432	739.241716697751	0
7	3437	739.74988955392	0
7	3442	740.100281997729	0
7	3447	740.640432827776	0
7	3452	740.772246720545	0
7	3457	740.887757025407	0
7	3462	741.799693607939	0
7	3467	742.228287814288	0
7	3472	742.690930522912	0
7	3478	742.984887069041	0
7	3483	743.031837620403	0
7	3488	744.396799569855	0
7	3493	747.270034186461	0
7	3498	750.751866499523	0
7	3503	751.542728536967	0
7	3508	753.106003765503	0
7	3513	753.712531895343	0
7	3518	754.119629596489	0
7	3523	758.117086544234	0
7	3528	758.51942940201	0
7	3533	758.951013919296	0
7	3538	759.392666358843	0
7	3543	761.326694743197	0
7	3548	761.375128790179	0
7	3553	761.858675768033	0
7	3558	765.433032266012	0
7	3563	767.038198558359	0
7	3568	771.602085374765	0
7	3573	771.709715537498	0
7	3578	772.436218542762	0
7	3583	772.583794771283	0
7	3588	774.431164340911	0
7	3593	775.929617425164	0
7	3598	777.631007256041	0
7	3603	778.328292272036	0
7	3608	778.795797430785	0
7	3613	780.600024454727	0
7	3618	780.871942822685	0
7	3623	782.757041539026	0
7	3629	784.889860540405	0
7	3634	786.282419750489	0
7	3639	787.487115562642	0
7	3644	789.943083523022	0
7	3649	792.845514685733	0
7	3654	796.10694785956	0
7	3659	797.818502139159	0
7	3664	797.838793663689	0
7	3669	800.377699760199	0
7	3674	801.005801138684	0
7	3679	801.47508451488	0
7	3684	801.613761799564	0
7	3689	803.530153859765	0
7	3694	804.494400661872	0
7	3699	804.750872409752	0
7	3704	804.875621560351	0
7	3709	805.055118953394	0
7	3714	805.096240436771	0
7	3719	805.179721672659	0
7	3724	806.131988279864	0
7	3729	807.084204389918	0
7	3734	807.411442216899	0
7	3739	809.468860983966	0
7	3744	809.902027179114	0
7	3749	812.786732586254	0
7	3754	813.15459620861	0
7	3759	813.554898619655	0
7	3764	814.277198945392	0
7	3769	816.307159574456	0
7	3774	817.123182577701	0
7	3780	817.44287877305	0
7	3785	818.613904802785	0
7	3790	819.1322937565	0
7	3795	820.882087588591	0
7	3800	821.190953618323	0
7	3805	822.334643321152	0
7	3810	825.6686977193	0
7	3815	825.901703373093	0
7	3820	826.964977512424	0
7	3825	827.109880500372	0
7	3830	828.053536406454	0
7	3835	828.184169805601	0
7	3840	830.560707119679	0
7	3845	831.089046857062	0
7	3850	832.072852123578	0
7	3855	833.023335886201	0
7	3860	833.148802521613	0
7	3865	833.160794828149	0
7	3870	833.990740437885	0
7	3875	836.31378704158	0
7	3880	839.551495959303	0
7	3885	839.863662465595	0
7	3890	839.886919709681	0
7	3895	840.137091294939	0
7	3900	840.696443318449	0
7	3905	840.862797976529	0
7	3910	841.0303918505	0
7	3915	842.579168397721	0
7	3920	842.993494963073	0
7	3925	843.171222591141	0
7	3931	843.687971825203	0
7	3936	844.058782641377	0
7	3941	844.893414489002	0
7	3946	845.370805375126	0
7	3951	846.346049157202	0
7	3956	846.700974111597	0
7	3961	847.079639010566	0
7	3966	847.509347188033	0
7	3971	849.738512680939	0
7	3976	850.078708155265	0
7	3981	851.39003268805	0
7	3986	851.481526457166	0
7	3991	852.500953262575	0
7	3996	853.22809140661	0
7	4001	853.351931359994	0
7	4006	854.499547231408	0
7	4011	854.51273318841	0
7	4016	856.811678354436	0
7	4021	860.171832194795	0
7	4026	860.878279743162	0
7	4031	862.525837789321	0
7	4036	863.042786259746	0
7	4041	863.380370140915	0
7	4046	865.066507031418	0
7	4051	866.074501186082	0
7	4056	866.109604421097	0
7	4061	867.619396673844	0
7	4066	868.508058668191	0
7	4071	870.741789756121	0
7	4076	871.504462455534	0
7	4082	872.321611140156	0
7	4087	872.684461526431	0
7	4092	873.044829913908	0
7	4097	873.853077570209	0
7	4102	874.025236341476	0
7	4107	874.416411329415	0
7	4112	876.35954986061	0
7	4117	877.893149983424	0
7	4122	880.292543419809	0
7	4127	881.878026297736	0
7	4132	883.562537495195	0
7	4137	885.343729742218	0
7	4142	885.476968578174	0
7	4147	885.603386995476	0
7	4152	886.759947799734	0
7	4157	889.066189298077	0
7	4162	889.456169974084	0
7	4167	891.466215166725	0
7	4172	892.95958814333	0
7	4177	894.544564903255	0
7	4182	896.747156586071	0
7	4187	896.979954455714	0
7	4192	899.082805531877	0
7	4197	901.139300566681	0
7	4202	901.587288654969	0
7	4207	904.077234454568	0
7	4212	904.103659407167	0
7	4217	905.819617506386	0
7	4222	906.067454543719	0
7	4227	906.866807178677	0
7	4233	909.06406668285	0
7	4238	909.726451060588	0
7	4243	910.241502303774	0
7	4248	912.430180373893	0
7	4253	913.708321542519	0
7	4258	915.536700967302	0
7	4263	916.016316964438	0
7	4268	916.09325669214	0
7	4273	916.213341988441	0
7	4278	916.608815266099	0
7	4283	917.473636888367	0
7	4288	917.666950110958	0
7	4293	919.041598575373	0
7	4298	921.143998462534	0
7	4303	922.78182951295	0
7	4308	922.892615339817	0
7	4313	923.241816636216	0
7	4318	923.790382090254	0
7	4323	925.204488520072	0
7	4328	927.888874251092	0
7	4333	930.702719989171	0
7	4338	931.070521024395	0
7	4343	933.052441824693	0
7	4348	933.17586945101	0
7	4353	933.649857538632	0
7	4358	933.836551715751	0
7	4363	934.668468873673	0
7	4368	935.291991796892	0
7	4373	936.719149904828	0
7	4378	936.896270362404	0
7	4384	938.959013607076	0
7	4389	941.943756399386	0
7	4394	942.3530175908	0
7	4399	942.916968991347	0
7	4404	944.523965402634	0
7	4409	946.636770266275	0
7	4414	947.024289675391	0
7	4419	947.869893980796	0
7	4424	950.472684397575	0
7	4429	950.627769541673	0
7	4434	951.501922008212	0
7	4439	952.024207647043	0
7	4444	952.159430826792	0
7	4449	953.979155865429	0
7	4454	955.248891336777	0
7	4459	955.404641244807	0
7	4464	955.492586461007	0
7	4469	956.497984493629	0
7	4474	956.899267422568	0
7	4479	957.020375917751	0
7	4484	960.712756714512	0
7	4489	961.059329625496	0
7	4494	961.289161321015	0
7	4499	962.543878158382	0
7	4504	964.429145577368	0
7	4509	964.895645734838	0
7	4514	964.918796323892	0
7	4519	965.855088887259	0
7	4524	970.523310035609	0
7	4529	972.427393274035	0
7	4535	973.276029898561	0
7	4540	974.97561060031	0
7	4545	976.755924124314	0
7	4550	977.353127553102	0
7	4555	977.840367403839	0
7	4560	978.25475686857	0
7	4565	978.588684368058	0
7	4570	978.677413806069	0
7	4575	978.812277542674	0
7	4580	979.246083196386	0
7	4585	980.670576599386	0
7	4590	981.240433729344	0
7	4595	981.855961541215	0
7	4600	981.960328257784	0
7	4605	982.600043297176	0
7	4610	983.133177440698	0
7	4615	986.173631767835	0
7	4620	987.131113920787	0
7	4625	987.708432251157	0
7	4630	989.035407941763	0
7	4635	989.237191936819	0
7	4640	990.09639104511	0
7	4645	990.716681582861	0
7	4650	991.181338440997	0
7	4655	992.693793537994	0
7	4660	992.954229343942	0
7	4665	993.024712887395	0
7	4670	993.140875214834	0
7	4675	995.856693877777	0
7	4680	997.356983017943	0
7	4686	998.426733077794	0
7	4691	999.793510832901	0
7	4696	999.799117084104	0
8	1059	236.966793828767	0.247654782189
8	1210	261.543660673714	0.07481583281
8	1514	326.342443742725	0.27514040444
8	1516	326.342469080629	0.262042756826
8	1814	386.130963094543	0.007782127595
8	1965	418.876834782327	0.267593381128
8	2116	446.497691181424	0.149280819292
8	2267	486.332493958896	0.141202702467
8	2569	539.757343905126	0.136353234502
8	3022	645.796573364799	0.213515899429
8	3173	683.050951074733	0.293546377874
8	3475	742.984861731137	0.134667429154

