version 2
run General-370-20240201-11:04:29-40057
attr configname General
attr datetime 20240201-11:04:29
attr experiment General
attr inifile main.ini
attr iterationvars "$0=1.0, $1=1.7, $2=30"
attr iterationvarsf 1.0,1.7,30-
attr measurement "$0=1.0, $1=1.7, $2=30"
attr network Rete
attr processid 40057
attr repetition 10
attr replication #10
attr resultdir results
attr runnumber 370
attr seedset 370
param Rete.lambda 1.0
param Rete.a 0.3s
param Rete.b 1.7s
param Rete.c 0.1s
param Rete.d 0.3s
param Rete.mu 3.0
param Rete.source2.interArrivalTime exponential(1s/lambda)
param Rete.source2.jobServiceTime exponential(1s/mu)
param Rete.source2.deadline uniform(a,b)
param Rete.server2.j 30
param Rete.server2.V uniform(c,d)

vector 0 Rete.passiveQueue queueLength:vector ETV
attr interpolationmode sample-hold
attr title "queue length, vector"
vector 1 Rete.sink lifeTime:vector ETV
attr interpolationmode none
attr title "lifetime of arrived jobs, vector"
attr unit s
vector 2 Rete.sink totalQueueingTime:vector ETV
attr interpolationmode none
attr title "the total time spent in queues by arrived jobs, vector"
attr unit s
vector 3 Rete.sink queuesVisited:vector ETV
attr interpolationmode none
attr title "the total number of queues visited by arrived jobs, vector"
vector 4 Rete.sink totalServiceTime:vector ETV
attr interpolationmode none
attr title "the total time spent  by arrived jobs, vector"
attr unit s
vector 5 Rete.sink totalDelayTime:vector ETV
attr interpolationmode none
attr title "the total time spent in delay nodes by arrived jobs, vector"
attr unit s
vector 6 Rete.sink delaysVisited:vector ETV
attr interpolationmode none
attr title "the total number of delays visited by arrived jobs, vector"
vector 7 Rete.sink generation:vector ETV
attr interpolationmode none
attr title "the generation of the arrived jobs, vector"
vector 8 Rete.passiveQueue queueingTime:vector ETV
attr interpolationmode none
attr title "queueing time at dequeue, vector"
attr unit s
0	0	0	0
0	10	2.557360026425	1
0	11	2.596082024543	0
0	25	6.691117813726	1
0	26	6.800806568716	0
0	50	9.922065481069	1
0	51	9.984282309664	0
0	152	35.250397194303	1
0	154	35.472096182975	2
0	155	35.510535437974	1
0	157	35.629938010416	0
0	181	38.55511060705	1
0	182	38.567577117599	0
0	196	41.817471065061	1
0	197	41.898313780455	0
0	211	44.192462082083	1
0	212	44.22475256703	0
0	463	112.92657221025	1
0	464	113.012334141406	0
0	488	116.034211653879	1
0	489	116.037395162614	0
0	518	119.700280180824	1
0	519	119.766854938599	0
0	543	123.479914026781	1
0	544	123.492231858555	0
0	573	130.263602248766	1
0	574	130.291522260502	0
0	605	136.612130249801	1
0	607	136.666709868119	2
0	608	136.677380700981	1
0	610	136.796783273423	0
0	644	141.084572568673	1
0	645	141.145105093262	0
0	649	141.163982363107	1
0	650	141.264507665704	0
0	699	148.476983993919	1
0	700	148.530892966506	0
0	820	171.434382560275	1
0	822	171.440963788106	2
0	823	171.45215665962	1
0	826	171.571559232062	0
0	931	191.890452284023	1
0	932	191.915685055615	0
0	941	192.126173170959	1
0	942	192.191677705524	0
0	946	192.27547821838	1
0	947	192.311080277966	0
0	1031	207.588563613895	1
0	1032	207.652000745257	0
0	1107	225.85693476864	1
0	1108	225.916093676209	0
0	1127	229.301628303112	1
0	1129	229.321464422367	2
0	1130	229.350587095067	1
0	1133	229.469989667509	0
0	1172	233.919549976859	1
0	1173	233.972439083794	0
0	1202	237.46462167279	1
0	1203	237.554899371073	0
0	1209	237.771309241763	1
0	1210	237.955508743931	0
0	1213	237.982289769983	1
0	1214	238.074911316373	0
0	1288	253.894241767449	1
0	1289	253.910061501273	0
0	1389	275.302528864286	1
0	1390	275.378798418048	0
0	1444	290.336168343761	1
0	1445	290.40692715526	0
0	1504	303.454674359431	1
0	1505	303.564531170503	0
0	1515	304.166997610088	1
0	1516	304.207385260058	0
0	1520	304.216435909302	1
0	1521	304.3267878325	0
0	1580	316.032874578714	1
0	1581	316.127304607321	0
0	1666	328.009192249751	1
0	1667	328.048052370614	0
0	1716	337.367862337624	1
0	1717	337.377784904937	0
0	1741	339.902885845708	1
0	1742	339.967581690611	0
0	1771	341.466674426593	1
0	1772	341.528886529873	0
0	1813	352.655869205178	1
0	1814	352.78400836289	0
0	1842	360.974369503744	1
0	1844	361.064383459583	2
0	1845	361.067031998686	1
0	1848	361.186434571128	0
0	1877	367.435725096624	1
0	1878	367.48282377525	0
0	1952	376.543892452678	1
0	1953	376.570779940991	0
0	1964	376.999982384664	1
0	1965	377.274629283066	0
0	2033	394.251319287072	1
0	2034	394.335979740531	0
0	2063	399.532456886155	1
0	2064	399.579308967427	0
0	2073	401.653154883031	1
0	2074	401.656552265594	0
0	2078	401.75113601215	1
0	2079	401.775954838036	0
0	2209	428.037859766109	1
0	2210	428.156558907034	0
0	2254	438.533386089959	1
0	2255	438.593620288146	0
0	2259	438.685053492813	1
0	2260	438.713022860588	0
0	2275	441.032363521466	1
0	2276	441.052166836628	0
0	2310	453.268909406595	1
0	2311	453.317695946323	0
0	2370	464.448364446854	1
0	2371	464.516896900831	0
0	2451	483.016080549102	1
0	2452	483.118375636252	0
0	2471	489.157578070276	1
0	2472	489.217363517244	0
0	2496	491.944512331176	1
0	2497	492.029456531763	0
0	2506	493.358026971794	1
0	2507	493.448460645631	0
0	2536	504.641563419923	1
0	2537	504.645220966325	0
0	2712	537.127854502252	1
0	2713	537.239673010576	0
0	2719	537.599227197494	1
0	2720	537.640282383434	0
0	2728	538.346651892706	1
0	2729	538.378188103747	0
0	2763	546.182609517054	1
0	2764	546.213770425135	0
0	2778	547.826852951515	1
0	2779	547.852575092793	0
0	2783	547.909676432216	1
0	2784	547.971977665235	0
0	2889	572.0102604102	1
0	2890	572.085317238107	0
0	2894	572.1948418412	1
0	2895	572.204719810549	0
0	2924	580.204610493548	1
0	2925	580.319129159966	0
0	2934	581.321342299923	1
0	2935	581.406296503857	0
0	2989	588.967429477143	1
0	2990	589.032582485584	0
0	3014	594.702981885189	1
0	3016	594.742529028414	2
0	3017	594.760439442251	1
0	3021	594.843361695618	2
0	3024	595.161048815109	1
0	3026	595.280451387551	0
0	3060	601.764788369995	1
0	3061	601.880831181661	0
0	3065	601.912654606507	1
0	3066	602.000233754103	0
0	3125	611.618831726916	1
0	3126	611.736159716354	0
0	3140	613.895716996759	1
0	3141	613.97756713088	0
0	3155	617.862078008959	1
0	3157	617.883689464434	2
0	3158	617.924187909112	1
0	3162	618.019528984353	2
0	3163	618.043590481554	1
0	3166	618.162993053996	0
0	3216	625.324427974785	1
0	3217	625.367439832843	0
0	3256	630.93980003361	1
0	3257	631.043236475177	0
0	3281	638.019849247678	1
0	3282	638.107641972001	0
0	3296	639.416350044693	1
0	3297	639.420848261726	0
0	3327	644.704375787057	1
0	3328	644.729662680636	0
0	3452	666.601849341599	1
0	3453	666.65312400833	0
0	3474	668.820390257564	1
0	3475	669.100720869904	0
0	3558	686.690699481092	1
0	3559	686.738267150402	0
0	3629	697.46479456037	1
0	3630	697.483532418513	0
0	3674	702.338756527467	1
0	3675	702.353279717425	0
0	3679	702.357800950006	1
0	3680	702.472682289867	0
0	3734	712.132044231692	1
0	3735	712.227283696348	0
0	3776	717.031283360313	1
0	3777	717.129470545259	0
0	3855	738.086350413232	1
0	3856	738.135171261811	0
0	3976	766.514384518562	1
0	3977	766.558562935833	0
0	3996	770.555983900264	1
0	3997	770.608429065407	0
0	4051	783.689058527656	1
0	4052	783.715239367369	0
0	4071	786.069309468325	1
0	4072	786.178921648401	0
0	4078	786.509959506386	1
0	4079	786.579531021259	0
0	4097	790.900734401369	1
0	4098	790.947412533016	0
0	4147	805.915070796577	1
0	4148	805.935091779275	0
0	4187	810.713720192958	1
0	4188	810.819627176819	0
0	4212	813.607366208487	1
0	4213	813.687968599669	0
0	4263	827.222500685946	1
0	4264	827.261029145916	0
0	4459	858.887267629254	1
0	4460	858.926409782404	0
0	4535	872.573415666816	1
0	4536	872.691291777979	0
0	4660	904.415702491065	1
0	4661	904.440698484079	0
0	4670	904.792100574799	1
0	4671	904.843143377747	0
0	4756	920.333128299221	1
0	4757	920.349232993667	0
0	4771	921.816375728145	1
0	4772	921.84152896362	0
0	4831	936.622185035381	1
0	4834	936.945727092074	0
0	4937	961.06946784264	1
0	4938	961.124654773818	0
0	4957	963.053168797454	1
0	4958	963.132037067999	0
0	4984	965.440494963481	1
0	4986	965.515261591723	2
0	4988	965.57616373511	3
0	4989	965.613311763342	2
0	4991	965.732714335784	1
0	4994	965.852116908226	0
0	5008	966.660097361793	1
0	5009	966.672718227246	0
0	5118	994.623124261506	1
0	5119	994.626525525049	0
0	5123	994.745297551823	1
0	5124	994.745928097491	0
0	5133	995.010172253469	1
0	5137	995.208381765376	2
0	5138	995.351107890616	1
0	5140	995.470510463058	0
1	5	0.574785152359	0.119402572442
1	12	2.596082024543	0.119402572442
1	15	2.715484596985	0.15812457056
1	20	3.080289195959	0.119402572442
1	27	6.800806568716	0.119402572442
1	30	6.920209141158	0.229091327432
1	35	7.202305676801	0.119402572442
1	40	9.155441191187	0.119402572442
1	45	9.750732333877	0.119402572442
1	52	9.984282309664	0.119402572442
1	55	10.103684882106	0.181619401037
1	60	10.272226754286	0.119402572442
1	65	11.30872856127	0.119402572442
1	70	11.867933484975	0.119402572442
1	75	12.367292111933	0.119402572442
1	80	14.166553275749	0.119402572442
1	85	14.643763449225	0.119402572442
1	90	15.63778188633	0.119402572442
1	95	17.226355533714	0.119402572442
1	100	17.528963338675	0.119402572442
1	105	18.378429087045	0.119402572442
1	110	19.021382752339	0.119402572442
1	115	21.550197027577	0.119402572442
1	120	26.616669782664	0.119402572442
1	125	28.03605144467	0.119402572442
1	130	29.913395403572	0.119402572442
1	135	32.261335463936	0.119402572442
1	140	33.05999012962	0.119402572442
1	145	34.921725637069	0.119402572442
1	150	35.229328637558	0.119402572442
1	158	35.629938010416	0.379540816113
1	161	35.749340582858	0.277244399883
1	166	36.174252801421	0.119402572442
1	171	37.297238936948	0.119402572442
1	176	38.423746494469	0.119402572442
1	183	38.567577117599	0.119402572442
1	186	38.686979690041	0.131869082991
1	191	39.623327492733	0.119402572442
1	198	41.898313780455	0.119402572442
1	201	42.017716352897	0.200245287836
1	206	42.691445779166	0.119402572442
1	213	44.22475256703	0.119402572442
1	216	44.344155139472	0.151693057389
1	221	45.625745828892	0.119402572442
1	226	46.860400026732	0.119402572442
1	231	47.363943833602	0.119402572442
1	236	49.072818724643	0.119402572442
1	241	51.914113482622	0.119402572442
1	246	52.51833800046	0.119402572442
1	251	52.642656931025	0.119402572442
1	256	55.12333015564	0.119402572442
1	261	56.420707254124	0.119402572442
1	266	57.57316616324	0.119402572442
1	271	59.042133150233	0.119402572442
1	276	60.587404657914	0.119402572442
1	281	63.368816400954	0.119402572442
1	286	63.5869741454	0.119402572442
1	291	64.746714440555	0.119402572442
1	296	66.436948771828	0.119402572442
1	301	67.119154519622	0.119402572442
1	307	67.751627747973	0.119402572442
1	312	70.038078707999	0.119402572442
1	317	71.502768818157	0.119402572442
1	322	73.085088428274	0.119402572442
1	327	73.772141474543	0.119402572442
1	332	74.835897772948	0.119402572442
1	337	78.059455138389	0.119402572442
1	342	78.995625182399	0.119402572442
1	347	79.374685557325	0.119402572442
1	352	84.778096642514	0.119402572442
1	357	84.920466800135	0.119402572442
1	362	86.439682448074	0.119402572442
1	367	87.155727130487	0.119402572442
1	372	88.226202724581	0.119402572442
1	377	90.497043790087	0.119402572442
1	382	90.865433922794	0.119402572442
1	387	92.290210110974	0.119402572442
1	392	93.699945183595	0.119402572442
1	397	94.230642590008	0.119402572442
1	402	95.088510656043	0.119402572442
1	407	99.919397959417	0.119402572442
1	412	101.462520160919	0.119402572442
1	417	102.786751034051	0.119402572442
1	422	103.813224632396	0.119402572442
1	427	104.462886424453	0.119402572442
1	432	105.540583275973	0.119402572442
1	437	106.206676657285	0.119402572442
1	442	108.059891894053	0.119402572442
1	447	108.521819763031	0.119402572442
1	452	110.937707281733	0.119402572442
1	458	112.049455285499	0.119402572442
1	465	113.012334141406	0.119402572442
1	468	113.131736713848	0.205164503598
1	473	114.872676023053	0.119402572442
1	478	115.229253007033	0.119402572442
1	483	115.623072560186	0.119402572442
1	490	116.037395162614	0.119402572442
1	493	116.156797735056	0.122586081177
1	498	118.014875118358	0.119402572442
1	503	118.403909593834	0.119402572442
1	508	118.829542075477	0.119402572442
1	513	119.201945540939	0.119402572442
1	520	119.766854938599	0.119402572442
1	523	119.886257511041	0.185977330217
1	528	121.570719805173	0.119402572442
1	533	122.606250242309	0.119402572442
1	538	123.184816322763	0.119402572442
1	545	123.492231858555	0.119402572442
1	548	123.611634430997	0.131720404216
1	553	127.037428785587	0.119402572442
1	558	128.427856275839	0.119402572442
1	563	128.754287671513	0.119402572442
1	568	129.764477105943	0.119402572442
1	575	130.291522260502	0.119402572442
1	578	130.410924832944	0.147322584178
1	583	130.951770129292	0.119402572442
1	588	131.692855858015	0.119402572442
1	593	133.011894008814	0.119402572442
1	598	136.096445489679	0.119402572442
1	603	136.396173900565	0.119402572442
1	611	136.796783273423	0.184653023622
1	614	136.916185845865	0.249475977746
1	619	137.206431711497	0.119402572442
1	624	138.350544070277	0.119402572442
1	629	138.731718714593	0.119402572442
1	634	140.628497364997	0.119402572442
1	639	140.79706064167	0.119402572442
1	646	141.145105093262	0.119402572442
1	651	141.264507665704	0.179935097031
1	654	141.383910238146	0.219927875039
1	659	142.423059550463	0.119402572442
1	664	142.690163328126	0.119402572442
1	669	143.90758449044	0.119402572442
1	674	145.103603002898	0.119402572442
1	679	145.470212541356	0.119402572442
1	684	145.86292544761	0.119402572442
1	689	146.628880772179	0.119402572442
1	694	147.620479973234	0.119402572442
1	701	148.530892966506	0.119402572442
1	704	148.650295538948	0.173311545029
1	709	152.364808068778	0.119402572442
1	714	152.861858345635	0.119402572442
1	719	153.512283511892	0.119402572442
1	724	153.843601179	0.119402572442
1	729	155.534744061426	0.119402572442
1	734	158.127379772784	0.119402572442
1	739	158.489991536716	0.119402572442
1	744	162.241192552554	0.119402572442
1	749	162.706690854619	0.119402572442
1	754	163.733906481612	0.119402572442
1	760	164.712469204746	0.119402572442
1	765	165.053916437865	0.119402572442
1	770	165.282517979827	0.119402572442
1	775	165.443219025601	0.119402572442
1	780	166.386880725511	0.119402572442
1	785	166.558883189839	0.119402572442
1	790	167.411135257512	0.119402572442
1	795	167.887896528215	0.119402572442
1	800	168.387876838607	0.119402572442
1	805	169.110266369419	0.119402572442
1	810	169.689897438917	0.119402572442
1	815	169.948422613725	0.119402572442
1	824	171.45215665962	0.119402572442
1	827	171.571559232062	0.137176671787
1	830	171.690961804504	0.249998016398
1	835	173.195316638515	0.119402572442
1	840	174.361800393675	0.119402572442
1	845	174.80860854382	0.119402572442
1	850	176.003496650214	0.119402572442
1	855	177.198694530627	0.119402572442
1	860	177.748945555228	0.119402572442
1	865	178.286516968223	0.119402572442
1	870	178.4562198673	0.119402572442
1	875	178.83826156757	0.119402572442
1	880	180.604190404399	0.119402572442
1	885	181.134324861925	0.119402572442
1	890	181.299734746968	0.119402572442
1	895	182.632708736953	0.119402572442
1	900	182.765317483491	0.119402572442
1	905	182.897186725082	0.119402572442
1	911	184.081518610419	0.119402572442
1	916	186.539395189309	0.119402572442
1	921	187.103392154716	0.119402572442
1	926	187.888313046947	0.119402572442
1	933	191.915685055615	0.119402572442
1	936	192.035087628057	0.144635344034
1	943	192.191677705524	0.119402572442
1	948	192.311080277966	0.184907107007
1	951	192.430482850408	0.155004632028
1	956	193.318927564779	0.119402572442
1	961	193.467190908809	0.119402572442
1	966	195.828656011624	0.119402572442
1	971	196.970448706956	0.119402572442
1	976	198.894402188617	0.119402572442
1	981	200.657359012965	0.119402572442
1	986	202.229034628896	0.119402572442
1	991	202.457106802573	0.119402572442
1	996	203.074401962033	0.119402572442
1	1001	205.449365679845	0.119402572442
1	1006	205.623036253394	0.119402572442
1	1011	206.181260752919	0.119402572442
1	1016	206.827850981045	0.119402572442
1	1021	207.107520584726	0.119402572442
1	1026	207.245713374765	0.119402572442
1	1033	207.652000745257	0.119402572442
1	1036	207.771403317699	0.182839703804
1	1041	207.994037633984	0.119402572442
1	1046	208.161826543168	0.119402572442
1	1051	210.02694320373	0.119402572442
1	1056	210.182318247107	0.119402572442
1	1062	211.083255659169	0.119402572442
1	1067	212.650977049686	0.119402572442
1	1072	213.692002665976	0.119402572442
1	1077	218.504630991487	0.119402572442
1	1082	220.821498143354	0.119402572442
1	1087	221.049090720679	0.119402572442
1	1092	221.254194323022	0.119402572442
1	1097	221.859749533083	0.119402572442
1	1102	224.621314615884	0.119402572442
1	1109	225.916093676209	0.119402572442
1	1112	226.035496248651	0.178561480011
1	1117	227.592928340351	0.119402572442
1	1122	228.970280109334	0.119402572442
1	1131	229.350587095067	0.119402572442
1	1134	229.469989667509	0.168361364397
1	1137	229.589392239951	0.267927817584
1	1142	230.832197574106	0.119402572442
1	1147	231.331536803551	0.119402572442
1	1152	231.937403456818	0.119402572442
1	1157	232.605730017559	0.119402572442
1	1162	233.035476045543	0.119402572442
1	1167	233.759009746291	0.119402572442
1	1174	233.972439083794	0.119402572442
1	1177	234.091841656236	0.172291679377
1	1182	234.832604393461	0.119402572442
1	1187	236.465749368532	0.119402572442
1	1192	237.2662472889	0.119402572442
1	1197	237.400481542704	0.119402572442
1	1204	237.554899371073	0.119402572442
1	1207	237.674301943515	0.209680270725
1	1215	238.074911316373	0.30360207461
1	1218	238.194313888815	0.212024118832
1	1223	238.807647412456	0.119402572442
1	1228	239.013558685156	0.119402572442
1	1233	239.278356269419	0.119402572442
1	1238	240.422631332998	0.119402572442
1	1243	240.836627576833	0.119402572442
1	1248	242.902854202777	0.119402572442
1	1253	243.202953243478	0.119402572442
1	1258	244.216236205381	0.119402572442
1	1263	244.544472320223	0.119402572442
1	1268	245.898108126958	0.119402572442
1	1273	246.775588518958	0.119402572442
1	1278	247.692655951429	0.119402572442
1	1283	248.086390335042	0.119402572442
1	1290	253.910061501273	0.119402572442
1	1293	254.029464073715	0.135222306266
1	1298	255.590693222808	0.119402572442
1	1303	256.471375593043	0.119402572442
1	1308	256.848687526009	0.119402572442
1	1313	257.079310128845	0.119402572442
1	1318	257.598179282134	0.119402572442
1	1323	257.748016578408	0.119402572442
1	1328	258.419001835038	0.119402572442
1	1333	259.679489085479	0.119402572442
1	1338	259.920264939922	0.119402572442
1	1343	262.979900123977	0.119402572442
1	1348	263.33759228841	0.119402572442
1	1353	267.28730625843	0.119402572442
1	1358	267.525292824831	0.119402572442
1	1364	270.350394952217	0.119402572442
1	1369	272.08065976633	0.119402572442
1	1374	274.420323233642	0.119402572442
1	1379	274.678386541485	0.119402572442
1	1384	274.802166750611	0.119402572442
1	1391	275.378798418048	0.119402572442
1	1394	275.49820099049	0.195672126204
1	1399	279.026807527586	0.119402572442
1	1404	279.643748001013	0.119402572442
1	1409	281.294220174825	0.119402572442
1	1414	281.485822047132	0.119402572442
1	1419	284.210716450704	0.119402572442
1	1424	285.328388892896	0.119402572442
1	1429	285.615657673616	0.119402572442
1	1434	287.309470173323	0.119402572442
1	1439	289.579951814947	0.119402572442
1	1446	290.40692715526	0.119402572442
1	1449	290.526329727702	0.190161383941
1	1454	292.04660706422	0.119402572442
1	1459	292.739282001602	0.119402572442
1	1464	293.613433656166	0.119402572442
1	1469	294.163949237414	0.119402572442
1	1474	297.672468379981	0.119402572442
1	1479	297.798049314364	0.119402572442
1	1484	298.340972746983	0.119402572442
1	1489	298.56598216821	0.119402572442
1	1494	303.131281356805	0.119402572442
1	1499	303.392498714	0.119402572442
1	1506	303.564531170503	0.119402572442
1	1509	303.683933742945	0.229259383514
1	1517	304.207385260058	0.119402572442
1	1522	304.3267878325	0.159790222412
1	1525	304.446190404942	0.22975449564
1	1530	307.556698966445	0.119402572442
1	1535	308.869812582099	0.119402572442
1	1540	309.873948445272	0.119402572442
1	1545	310.078371113683	0.119402572442
1	1550	310.867725385703	0.119402572442
1	1555	311.273380023342	0.119402572442
1	1560	311.915739473945	0.119402572442
1	1565	312.289551871367	0.119402572442
1	1570	312.923904452831	0.119402572442
1	1575	315.009001753419	0.119402572442
1	1582	316.127304607321	0.119402572442
1	1585	316.246707179763	0.213832601049
1	1590	316.406769663729	0.119402572442
1	1595	316.917408962962	0.119402572442
1	1600	317.672269397866	0.119402572442
1	1605	319.171376346285	0.119402572442
1	1610	319.34303438348	0.119402572442
1	1615	319.680759076166	0.119402572442
1	1620	320.281908686052	0.119402572442
1	1625	320.468587477955	0.119402572442
1	1630	320.940911179629	0.119402572442
1	1635	323.355875153892	0.119402572442
1	1640	324.255943288673	0.119402572442
1	1645	324.425687096944	0.119402572442
1	1650	324.673849185857	0.119402572442
1	1655	325.833026010393	0.119402572442
1	1660	327.517902056645	0.119402572442
1	1668	328.048052370614	0.119402572442
1	1671	328.167454943056	0.158262693305
1	1676	331.015181482995	0.119402572442
1	1681	331.236172518067	0.119402572442
1	1686	331.453744241263	0.119402572442
1	1691	333.124557420661	0.119402572442
1	1696	334.188345187331	0.119402572442
1	1701	334.807613382752	0.119402572442
1	1706	336.019518706036	0.119402572442
1	1711	337.171139392873	0.119402572442
1	1718	337.377784904937	0.119402572442
1	1721	337.497187477379	0.129325139755
1	1726	338.793853927396	0.119402572442
1	1731	339.341555252286	0.119402572442
1	1736	339.489205870392	0.119402572442
1	1743	339.967581690611	0.119402572442
1	1746	340.086984263053	0.184098417345
1	1751	340.214062901411	0.119402572442
1	1756	340.534224861256	0.119402572442
1	1761	340.856535033651	0.119402572442
1	1766	341.179164485147	0.119402572442
1	1773	341.528886529873	0.119402572442
1	1776	341.648289102315	0.181614675722
1	1781	342.180221084914	0.119402572442
1	1786	344.601189694605	0.119402572442
1	1791	347.682513173093	0.119402572442
1	1796	348.156731934205	0.119402572442
1	1801	348.465338219403	0.119402572442
1	1806	350.811430454187	0.119402572442
1	1811	352.502801562474	0.119402572442
1	1817	352.903410935332	0.247541730154
1	1822	353.611376908605	0.119402572442
1	1827	353.883082972775	0.119402572442
1	1832	354.60617338598	0.119402572442
1	1837	359.599494222935	0.119402572442
1	1846	361.067031998686	0.119402572442
1	1849	361.186434571128	0.212065067384
1	1852	361.30583714357	0.241453683987
1	1857	361.73643131032	0.119402572442
1	1862	362.045943323413	0.119402572442
1	1867	364.736826030795	0.119402572442
1	1872	365.106322107803	0.119402572442
1	1879	367.48282377525	0.119402572442
1	1882	367.602226347692	0.166501251068
1	1887	367.877884360205	0.119402572442
1	1892	368.078928723453	0.119402572442
1	1897	368.535568968731	0.119402572442
1	1902	369.005800745132	0.119402572442
1	1907	369.202412652823	0.119402572442
1	1912	369.877828935187	0.119402572442
1	1917	370.250444385057	0.119402572442
1	1922	370.848444983803	0.119402572442
1	1927	371.042602631486	0.119402572442
1	1932	371.35816069273	0.119402572442
1	1937	372.056006580933	0.119402572442
1	1942	372.801544541	0.119402572442
1	1947	373.916417905937	0.119402572442
1	1954	376.570779940991	0.119402572442
1	1957	376.690182513433	0.146290060755
1	1962	376.99342248265	0.119402572442
1	1968	377.394031855508	0.394049470844
1	1973	378.980328294464	0.119402572442
1	1978	379.485463284075	0.119402572442
1	1983	379.971717473353	0.119402572442
1	1988	381.666334389391	0.119402572442
1	1993	382.564773386669	0.119402572442
1	1998	387.369821839467	0.119402572442
1	2003	388.011303539898	0.119402572442
1	2008	388.473449176767	0.119402572442
1	2013	388.63402026282	0.119402572442
1	2018	389.060902346204	0.119402572442
1	2023	389.80187540568	0.119402572442
1	2028	391.058067425225	0.119402572442
1	2035	394.335979740531	0.119402572442
1	2038	394.455382312973	0.204063025901
1	2043	395.210080195769	0.119402572442
1	2048	396.145085337296	0.119402572442
1	2053	398.249482307099	0.119402572442
1	2058	399.343147829057	0.119402572442
1	2065	399.579308967427	0.119402572442
1	2068	399.698711539869	0.166254653714
1	2075	401.656552265594	0.119402572442
1	2080	401.775954838036	0.122799955005
1	2083	401.895357410478	0.144221398328
1	2088	404.319692139613	0.119402572442
1	2093	404.557712567485	0.119402572442
1	2098	405.080768918971	0.119402572442
1	2103	405.413063476398	0.119402572442
1	2108	406.131624705188	0.119402572442
1	2113	407.601422163614	0.119402572442
1	2119	409.711634554292	0.119402572442
1	2124	410.087749462315	0.119402572442
1	2129	410.222472837069	0.119402572442
1	2134	411.119574352456	0.119402572442
1	2139	411.936185754442	0.119402572442
1	2144	412.142494893663	0.119402572442
1	2149	412.515878521572	0.119402572442
1	2154	412.854913718821	0.119402572442
1	2159	415.62733489899	0.119402572442
1	2164	415.959528732332	0.119402572442
1	2169	419.404238849033	0.119402572442
1	2174	421.942602396334	0.119402572442
1	2179	422.625219793125	0.119402572442
1	2184	422.948493602272	0.119402572442
1	2189	423.746136283751	0.119402572442
1	2194	424.338388040306	0.119402572442
1	2199	427.556538307096	0.119402572442
1	2204	427.99146458734	0.119402572442
1	2211	428.156558907034	0.119402572442
1	2214	428.275961479476	0.238101713367
1	2219	428.476362045903	0.119402572442
1	2224	428.926947892595	0.119402572442
1	2229	432.40826046788	0.119402572442
1	2234	434.724006611527	0.119402572442
1	2239	435.181820932006	0.119402572442
1	2244	435.773285032733	0.119402572442
1	2249	436.335742568361	0.119402572442
1	2256	438.593620288146	0.119402572442
1	2261	438.713022860588	0.179636770629
1	2264	438.83242543303	0.147371940217
1	2270	440.114786503349	0.119402572442
1	2277	441.052166836628	0.119402572442
1	2280	441.17156940907	0.139205887604
1	2285	441.471023876836	0.119402572442
1	2290	442.866158888176	0.119402572442
1	2295	443.157869815165	0.119402572442
1	2300	448.292231003588	0.119402572442
1	2305	448.922403075035	0.119402572442
1	2312	453.317695946323	0.119402572442
1	2315	453.437098518765	0.16818911217
1	2320	454.813124325187	0.119402572442
1	2325	455.42124088778	0.119402572442
1	2330	457.422818366638	0.119402572442
1	2335	457.681145480178	0.119402572442
1	2340	458.07770219412	0.119402572442
1	2345	459.114744467528	0.119402572442
1	2350	460.272752412103	0.119402572442
1	2355	461.980038833631	0.119402572442
1	2360	463.658503050413	0.119402572442
1	2365	463.964375137513	0.119402572442
1	2372	464.516896900831	0.119402572442
1	2375	464.636299473273	0.187935026419
1	2380	464.952979606555	0.119402572442
1	2385	465.306629230457	0.119402572442
1	2390	466.288877484274	0.119402572442
1	2395	467.076838652597	0.119402572442
1	2400	468.850576633625	0.119402572442
1	2405	469.680335002956	0.119402572442
1	2410	472.147233990622	0.119402572442
1	2415	473.4462326761	0.119402572442
1	2421	474.996777239946	0.119402572442
1	2426	477.275717882079	0.119402572442
1	2431	480.002373144566	0.119402572442
1	2436	480.764661649873	0.119402572442
1	2441	481.37087640198	0.119402572442
1	2446	481.798514217487	0.119402572442
1	2453	483.118375636252	0.119402572442
1	2456	483.237778208694	0.221697659592
1	2461	487.257731756977	0.119402572442
1	2466	488.287860886033	0.119402572442
1	2473	489.217363517244	0.119402572442
1	2476	489.336766089686	0.17918801941
1	2481	490.31562606522	0.119402572442
1	2486	491.017999381768	0.119402572442
1	2491	491.277755497583	0.119402572442
1	2498	492.029456531763	0.119402572442
1	2501	492.148859104205	0.204346773029
1	2508	493.448460645631	0.119402572442
1	2511	493.567863218073	0.209836246279
1	2516	496.321150018487	0.119402572442
1	2521	496.997305214145	0.119402572442
1	2526	497.172216676761	0.119402572442
1	2531	498.389737247128	0.119402572442
1	2538	504.645220966325	0.119402572442
1	2541	504.764623538767	0.123060118844
1	2546	505.817880694615	0.119402572442
1	2551	506.831228021848	0.119402572442
1	2556	508.314737188513	0.119402572442
1	2561	508.795906166401	0.119402572442
1	2566	509.675203989684	0.119402572442
1	2572	512.101670651869	0.119402572442
1	2577	512.542873704342	0.119402572442
1	2582	512.818004465523	0.119402572442
1	2587	513.063717931161	0.119402572442
1	2592	513.205182311309	0.119402572442
1	2597	513.818158713334	0.119402572442
1	2602	515.271959900198	0.119402572442
1	2607	519.126309218077	0.119402572442
1	2612	519.459688666353	0.119402572442
1	2617	520.454604495891	0.119402572442
1	2622	520.618043538261	0.119402572442
1	2627	522.429819713745	0.119402572442
1	2632	522.716652510972	0.119402572442
1	2637	523.131349738486	0.119402572442
1	2642	525.407971087714	0.119402572442
1	2647	525.605258267766	0.119402572442
1	2652	527.381993992174	0.119402572442
1	2657	530.013315289606	0.119402572442
1	2662	530.417524761306	0.119402572442
1	2667	530.640480878178	0.119402572442
1	2672	531.039768275413	0.119402572442
1	2677	532.224045702253	0.119402572442
1	2682	532.921519574089	0.119402572442
1	2687	534.140105331122	0.119402572442
1	2692	534.759302464326	0.119402572442
1	2697	535.041276119691	0.119402572442
1	2702	536.304635451477	0.119402572442
1	2707	536.913619303283	0.119402572442
1	2714	537.239673010576	0.119402572442
1	2717	537.359075583018	0.231221080766
1	2723	537.759684955876	0.160457758382
1	2730	538.378188103747	0.119402572442
1	2733	538.497590676189	0.150938783483
1	2738	538.825481758144	0.119402572442
1	2743	539.421081667127	0.119402572442
1	2748	542.382957331141	0.119402572442
1	2753	544.490308854912	0.119402572442
1	2758	545.694260768183	0.119402572442
1	2765	546.213770425135	0.119402572442
1	2768	546.333172997577	0.150563480523
1	2773	547.428191662714	0.119402572442
1	2780	547.852575092793	0.119402572442
1	2785	547.971977665235	0.14512471372
1	2788	548.091380237677	0.181703805461
1	2793	548.370746585044	0.119402572442
1	2798	551.749798427444	0.119402572442
1	2803	552.459116625194	0.119402572442
1	2808	552.942921106763	0.119402572442
1	2813	554.622261832835	0.119402572442
1	2818	555.095640344492	0.119402572442
1	2823	555.861495823575	0.119402572442
1	2828	556.279930271021	0.119402572442
1	2833	556.837288577517	0.119402572442
1	2838	557.031520441994	0.119402572442
1	2843	560.313895373855	0.119402572442
1	2848	561.194232215127	0.119402572442
1	2853	562.309765903042	0.119402572442
1	2858	565.047785711158	0.119402572442
1	2863	565.857595416518	0.119402572442
1	2868	568.6354595848	0.119402572442
1	2874	569.081061102532	0.119402572442
1	2879	569.774119327116	0.119402572442
1	2884	570.608017941729	0.119402572442
1	2891	572.085317238107	0.119402572442
1	2896	572.204719810549	0.194459400349
1	2899	572.324122382991	0.129280541791
1	2904	572.463673219474	0.119402572442
1	2909	573.357645081567	0.119402572442
1	2914	573.648117610226	0.119402572442
1	2919	579.453586839176	0.119402572442
1	2926	580.319129159966	0.119402572442
1	2929	580.438531732408	0.23392123886
1	2936	581.406296503857	0.119402572442
1	2939	581.525699076299	0.204356776376
1	2944	582.027871023532	0.119402572442
1	2949	582.251526651859	0.119402572442
1	2954	583.103780467182	0.119402572442
1	2959	583.57906762495	0.119402572442
1	2964	584.661280685797	0.119402572442
1	2969	585.096616968768	0.119402572442
1	2974	587.056225525221	0.119402572442
1	2979	587.554539092395	0.119402572442
1	2984	588.513805036709	0.119402572442
1	2991	589.032582485584	0.119402572442
1	2994	589.151985058026	0.184555580883
1	2999	591.418475011941	0.119402572442
1	3004	594.036456211421	0.119402572442
1	3009	594.214095287879	0.119402572442
1	3018	594.760439442251	0.119402572442
1	3023	594.879842014693	0.176860129504
1	3027	595.280451387551	0.537922359137
1	3030	595.399853959993	0.556492264375
1	3035	595.809279403361	0.119402572442
1	3040	597.126831241733	0.119402572442
1	3045	597.504363799352	0.119402572442
1	3050	598.302512928856	0.119402572442
1	3055	600.247546352525	0.119402572442
1	3062	601.880831181661	0.119402572442
1	3067	602.000233754103	0.235445384108
1	3070	602.119636326545	0.206981720038
1	3075	603.769139825815	0.119402572442
1	3080	604.333812263977	0.119402572442
1	3085	604.820961868438	0.119402572442
1	3090	605.529806767899	0.119402572442
1	3095	606.341285984311	0.119402572442
1	3100	607.764627000117	0.119402572442
1	3105	609.441840450888	0.119402572442
1	3110	610.495819825502	0.119402572442
1	3115	611.046997114636	0.119402572442
1	3120	611.368103289684	0.119402572442
1	3127	611.736159716354	0.119402572442
1	3130	611.855562288796	0.23673056188
1	3135	612.65081733861	0.119402572442
1	3142	613.97756713088	0.119402572442
1	3145	614.096969703322	0.201252706563
1	3150	615.409508365882	0.119402572442
1	3159	617.924187909112	0.119402572442
1	3164	618.043590481554	0.181512472595
1	3167	618.162993053996	0.279303589562
1	3170	618.282395626438	0.262866642085
1	3176	618.950853276067	0.119402572442
1	3181	619.30963060318	0.119402572442
1	3186	621.599312480283	0.119402572442
1	3191	621.90822303705	0.119402572442
1	3196	622.296648215291	0.119402572442
1	3201	623.076817442468	0.119402572442
1	3206	623.718056466062	0.119402572442
1	3211	624.967446725284	0.119402572442
1	3218	625.367439832843	0.119402572442
1	3221	625.486842405285	0.1624144305
1	3226	625.920306613546	0.119402572442
1	3231	627.440407219724	0.119402572442
1	3236	629.095223890652	0.119402572442
1	3241	629.870608095235	0.119402572442
1	3246	630.547080189342	0.119402572442
1	3251	630.781233936695	0.119402572442
1	3258	631.043236475177	0.119402572442
1	3261	631.162639047619	0.222839014009
1	3266	632.305255358584	0.119402572442
1	3271	635.571539780199	0.119402572442
1	3276	636.649789273499	0.119402572442
1	3283	638.107641972001	0.119402572442
1	3286	638.227044544443	0.207195296765
1	3291	638.939056531604	0.119402572442
1	3298	639.420848261726	0.119402572442
1	3301	639.540250834168	0.123900789475
1	3306	640.110370991208	0.119402572442
1	3311	642.116262916079	0.119402572442
1	3316	642.989834380934	0.119402572442
1	3321	643.818223049163	0.119402572442
1	3329	644.729662680636	0.119402572442
1	3332	644.849065253078	0.144689466021
1	3337	648.388859362164	0.119402572442
1	3342	648.723834713765	0.119402572442
1	3347	650.912249190649	0.119402572442
1	3352	651.49519844767	0.119402572442
1	3357	651.735840987074	0.119402572442
1	3362	653.326639575148	0.119402572442
1	3367	654.267690403224	0.119402572442
1	3372	654.937143556751	0.119402572442
1	3377	655.292382469015	0.119402572442
1	3382	656.82718236189	0.119402572442
1	3387	656.967894563899	0.119402572442
1	3392	658.167083008303	0.119402572442
1	3397	658.342566622769	0.119402572442
1	3402	658.468634659451	0.119402572442
1	3407	660.250131629644	0.119402572442
1	3412	660.526505596068	0.119402572442
1	3417	660.947407044742	0.119402572442
1	3422	661.516205547395	0.119402572442
1	3427	662.138740364594	0.119402572442
1	3432	663.249920641098	0.119402572442
1	3437	663.401397454139	0.119402572442
1	3442	663.764186169634	0.119402572442
1	3447	664.650367353281	0.119402572442
1	3454	666.65312400833	0.119402572442
1	3457	666.772526580772	0.170677239173
1	3462	667.186933111909	0.119402572442
1	3467	667.617382513751	0.119402572442
1	3472	668.819514069488	0.119402572442
1	3478	669.220123442346	0.399733184782
1	3483	670.209115003807	0.119402572442
1	3488	670.933612037476	0.119402572442
1	3493	671.38041186763	0.119402572442
1	3498	672.755520771248	0.119402572442
1	3503	673.572460848497	0.119402572442
1	3508	674.223292284723	0.119402572442
1	3513	674.561660189103	0.119402572442
1	3518	677.806141376568	0.119402572442
1	3523	680.609273905914	0.119402572442
1	3528	681.968893330676	0.119402572442
1	3533	682.307264251693	0.119402572442
1	3538	682.53376387432	0.119402572442
1	3543	682.840585472503	0.119402572442
1	3548	683.790400496937	0.119402572442
1	3553	684.150668205877	0.119402572442
1	3560	686.738267150402	0.119402572442
1	3563	686.857669722844	0.166970241752
1	3568	687.765925609849	0.119402572442
1	3573	688.619374549679	0.119402572442
1	3578	691.1022795976	0.119402572442
1	3583	691.244766932549	0.119402572442
1	3588	692.121305964789	0.119402572442
1	3593	692.70051210414	0.119402572442
1	3598	692.93573383588	0.119402572442
1	3603	693.639404383888	0.119402572442
1	3608	693.982436785581	0.119402572442
1	3613	695.672392732618	0.119402572442
1	3618	695.973837930511	0.119402572442
1	3623	696.241181254566	0.119402572442
1	3631	697.483532418513	0.119402572442
1	3634	697.602934990955	0.138140430585
1	3639	697.841008088851	0.119402572442
1	3644	698.223521120614	0.119402572442
1	3649	699.159851954502	0.119402572442
1	3654	699.968482987978	0.119402572442
1	3659	700.18438537656	0.119402572442
1	3664	700.972068988402	0.119402572442
1	3669	701.241383680757	0.119402572442
1	3676	702.353279717425	0.119402572442
1	3681	702.472682289867	0.1339257624
1	3684	702.592084862309	0.234283912303
1	3689	703.42099877984	0.119402572442
1	3694	705.312683312396	0.119402572442
1	3699	705.841434099277	0.119402572442
1	3704	706.290796383344	0.119402572442
1	3709	706.774422086258	0.119402572442
1	3714	708.226570124312	0.119402572442
1	3719	708.905409154477	0.119402572442
1	3724	710.295539814084	0.119402572442
1	3729	710.982308783345	0.119402572442
1	3736	712.227283696348	0.119402572442
1	3739	712.34668626879	0.214642037098
1	3744	713.808724450643	0.119402572442
1	3749	714.136594336453	0.119402572442
1	3754	714.45817436748	0.119402572442
1	3759	714.905083431332	0.119402572442
1	3764	715.094389160126	0.119402572442
1	3769	716.595905925929	0.119402572442
1	3774	716.848263744843	0.119402572442
1	3780	717.248873117701	0.217589757388
1	3785	720.443099098409	0.119402572442
1	3790	721.335409859143	0.119402572442
1	3795	723.607777997165	0.119402572442
1	3800	728.039086913374	0.119402572442
1	3805	728.398291421513	0.119402572442
1	3810	730.013992309499	0.119402572442
1	3815	731.903074546142	0.119402572442
1	3820	732.860097802066	0.119402572442
1	3825	733.004497120575	0.119402572442
1	3830	733.17837325329	0.119402572442
1	3835	733.413647132321	0.119402572442
1	3840	733.576532565126	0.119402572442
1	3845	736.758476840292	0.119402572442
1	3850	737.209151173562	0.119402572442
1	3857	738.135171261811	0.119402572442
1	3860	738.254573834253	0.168223421021
1	3865	739.268609120476	0.119402572442
1	3870	739.730192007426	0.119402572442
1	3875	741.385296421573	0.119402572442
1	3880	741.96839519616	0.119402572442
1	3885	743.254927006845	0.119402572442
1	3890	744.099122700475	0.119402572442
1	3895	744.744072104086	0.119402572442
1	3900	746.144571466301	0.119402572442
1	3905	747.497499223963	0.119402572442
1	3910	747.63492640561	0.119402572442
1	3915	748.350521967715	0.119402572442
1	3920	749.280004065804	0.119402572442
1	3925	749.534678218784	0.119402572442
1	3931	753.354004461594	0.119402572442
1	3936	755.41856489769	0.119402572442
1	3941	755.845876921046	0.119402572442
1	3946	757.872735435882	0.119402572442
1	3951	758.907764223188	0.119402572442
1	3956	761.847391909591	0.119402572442
1	3961	762.311733596878	0.119402572442
1	3966	764.341409822374	0.119402572442
1	3971	765.823048460717	0.119402572442
1	3978	766.558562935833	0.119402572442
1	3981	766.677965508275	0.163580989713
1	3986	766.976374658093	0.119402572442
1	3991	769.454824002421	0.119402572442
1	3998	770.608429065407	0.119402572442
1	4001	770.727831637849	0.171847737585
1	4006	771.164702504307	0.119402572442
1	4011	772.467295107827	0.119402572442
1	4016	775.828126768293	0.119402572442
1	4021	776.845498878928	0.119402572442
1	4026	778.206487269011	0.119402572442
1	4031	778.638546595147	0.119402572442
1	4036	781.681331837927	0.119402572442
1	4041	782.356202647156	0.119402572442
1	4046	782.588789980011	0.119402572442
1	4053	783.715239367369	0.119402572442
1	4056	783.834641939811	0.145583412155
1	4061	785.12171861855	0.119402572442
1	4066	785.626434055979	0.119402572442
1	4073	786.178921648401	0.119402572442
1	4076	786.298324220843	0.229014752518
1	4082	786.698933593701	0.188974087315
1	4087	789.127822675056	0.119402572442
1	4092	790.558285753236	0.119402572442
1	4099	790.947412533016	0.119402572442
1	4102	791.066815105458	0.166080704089
1	4107	795.904973689394	0.119402572442
1	4112	797.29997391117	0.119402572442
1	4117	799.697259323417	0.119402572442
1	4122	800.449406402035	0.119402572442
1	4127	801.020218006157	0.119402572442
1	4132	801.43577462684	0.119402572442
1	4137	804.669790661299	0.119402572442
1	4142	805.615629853701	0.119402572442
1	4149	805.935091779275	0.119402572442
1	4152	806.054494351717	0.13942355514
1	4157	807.263222806558	0.119402572442
1	4162	807.455503130739	0.119402572442
1	4167	808.521222566115	0.119402572442
1	4172	809.286305940827	0.119402572442
1	4177	810.09215154214	0.119402572442
1	4182	810.543157982563	0.119402572442
1	4189	810.819627176819	0.119402572442
1	4192	810.939029749261	0.225309556303
1	4197	811.797308687917	0.119402572442
1	4202	812.47374002435	0.119402572442
1	4207	813.391006375266	0.119402572442
1	4214	813.687968599669	0.119402572442
1	4217	813.807371172111	0.200004963624
1	4222	814.481237274868	0.119402572442
1	4227	816.03625587344	0.119402572442
1	4233	816.807847500812	0.119402572442
1	4238	817.476698521063	0.119402572442
1	4243	818.112525982969	0.119402572442
1	4248	818.426948780434	0.119402572442
1	4253	819.021120021793	0.119402572442
1	4258	824.554086083799	0.119402572442
1	4265	827.261029145916	0.119402572442
1	4268	827.380431718358	0.157931032412
1	4273	827.767392131935	0.119402572442
1	4278	831.615704671703	0.119402572442
1	4283	832.60676139916	0.119402572442
1	4288	833.030936444335	0.119402572442
1	4293	833.627708424378	0.119402572442
1	4298	834.219833301696	0.119402572442
1	4303	834.708830012614	0.119402572442
1	4308	834.927817206527	0.119402572442
1	4313	835.097131935056	0.119402572442
1	4318	835.341879507673	0.119402572442
1	4323	837.251378280817	0.119402572442
1	4328	838.149396865127	0.119402572442
1	4333	838.943323881338	0.119402572442
1	4338	839.212353038781	0.119402572442
1	4343	839.543665522174	0.119402572442
1	4348	841.421447078747	0.119402572442
1	4353	841.634726922059	0.119402572442
1	4358	842.325596601106	0.119402572442
1	4363	842.604364057352	0.119402572442
1	4368	842.740085122885	0.119402572442
1	4373	844.080819916612	0.119402572442
1	4378	844.41201908167	0.119402572442
1	4384	844.852436155213	0.119402572442
1	4389	845.979772530464	0.119402572442
1	4394	846.188570109694	0.119402572442
1	4399	847.341819044266	0.119402572442
1	4404	847.921321900405	0.119402572442
1	4409	849.946323364071	0.119402572442
1	4414	850.085233448211	0.119402572442
1	4419	850.385745151869	0.119402572442
1	4424	850.626742951141	0.119402572442
1	4429	852.093119190577	0.119402572442
1	4434	853.913192283799	0.119402572442
1	4439	854.219869366786	0.119402572442
1	4444	854.636557096947	0.119402572442
1	4449	856.929374548464	0.119402572442
1	4454	857.206310457794	0.119402572442
1	4461	858.926409782404	0.119402572442
1	4464	859.045812354846	0.158544725592
1	4469	862.039379089262	0.119402572442
1	4474	862.439254925352	0.119402572442
1	4479	863.71691044354	0.119402572442
1	4484	863.850024452615	0.119402572442
1	4489	866.980167824207	0.119402572442
1	4494	867.468887851656	0.119402572442
1	4499	868.973125720154	0.119402572442
1	4504	869.505464542745	0.119402572442
1	4509	870.02113206845	0.119402572442
1	4514	870.272298227699	0.119402572442
1	4519	871.599301568378	0.119402572442
1	4524	871.82256126143	0.119402572442
1	4529	872.111370054111	0.119402572442
1	4537	872.691291777979	0.119402572442
1	4540	872.810694350421	0.237278683605
1	4545	874.007074936122	0.119402572442
1	4550	878.169203792129	0.119402572442
1	4555	879.597363966736	0.119402572442
1	4560	882.041587554584	0.119402572442
1	4565	882.367857587843	0.119402572442
1	4570	883.509702711998	0.119402572442
1	4575	884.834111785844	0.119402572442
1	4580	885.265677935437	0.119402572442
1	4585	887.539383337742	0.119402572442
1	4590	887.867918892359	0.119402572442
1	4595	891.996297352612	0.119402572442
1	4600	892.167425700462	0.119402572442
1	4605	893.107083425693	0.119402572442
1	4610	893.546311161461	0.119402572442
1	4615	894.375475379771	0.119402572442
1	4620	896.440320648752	0.119402572442
1	4625	897.169949014221	0.119402572442
1	4630	897.429263191328	0.119402572442
1	4635	901.592970355998	0.119402572442
1	4640	901.97816605092	0.119402572442
1	4645	902.125646860301	0.119402572442
1	4650	903.606559609967	0.119402572442
1	4655	903.814664764555	0.119402572442
1	4662	904.440698484079	0.119402572442
1	4665	904.560101056521	0.144398565456
1	4672	904.843143377747	0.119402572442
1	4675	904.962545950189	0.17044537539
1	4680	906.579657077614	0.119402572442
1	4686	907.081797172798	0.119402572442
1	4691	908.822160463347	0.119402572442
1	4696	909.012849406703	0.119402572442
1	4701	911.545714902227	0.119402572442
1	4706	912.004505256291	0.119402572442
1	4711	912.992651384547	0.119402572442
1	4716	913.996277075706	0.119402572442
1	4721	914.537367173995	0.119402572442
1	4726	915.290038872046	0.119402572442
1	4731	917.003130900478	0.119402572442
1	4736	917.673642072685	0.119402572442
1	4741	918.093736351599	0.119402572442
1	4746	918.448467332825	0.119402572442
1	4751	919.832183612738	0.119402572442
1	4758	920.349232993667	0.119402572442
1	4761	920.468635566109	0.135507266888
1	4766	920.78913831864	0.119402572442
1	4773	921.84152896362	0.119402572442
1	4776	921.960931536062	0.144555807917
1	4781	922.788750360631	0.119402572442
1	4786	925.881196493418	0.119402572442
1	4791	926.646093662039	0.119402572442
1	4796	927.401669506424	0.119402572442
1	4801	927.73784677639	0.119402572442
1	4806	929.187138617208	0.119402572442
1	4811	930.333105553737	0.119402572442
1	4816	933.650489025843	0.119402572442
1	4821	933.854374863666	0.119402572442
1	4826	934.678065349071	0.119402572442
1	4833	936.664520291658	0.119402572442
1	4837	937.065129664516	0.442944629135
1	4842	939.254151286615	0.119402572442
1	4847	940.584559786419	0.119402572442
1	4852	941.668132742706	0.119402572442
1	4857	942.145175408736	0.119402572442
1	4862	942.62731423293	0.119402572442
1	4867	942.831551993925	0.119402572442
1	4872	944.280258155719	0.119402572442
1	4877	944.893812918838	0.119402572442
1	4882	945.323041513589	0.119402572442
1	4887	946.96166627664	0.119402572442
1	4892	947.553838118059	0.119402572442
1	4897	948.553350203833	0.119402572442
1	4902	949.071380915839	0.119402572442
1	4907	950.453702980903	0.119402572442
1	4912	952.051045107581	0.119402572442
1	4917	955.710155184021	0.119402572442
1	4922	957.056645379052	0.119402572442
1	4927	957.944243842805	0.119402572442
1	4932	959.185034928328	0.119402572442
1	4939	961.124654773818	0.119402572442
1	4942	961.24405734626	0.17458950362
1	4947	962.181648706003	0.119402572442
1	4952	962.57019635613	0.119402572442
1	4959	963.132037067999	0.119402572442
1	4962	963.251439640441	0.198270842987
1	4967	963.431864522836	0.119402572442
1	4972	963.981535855961	0.119402572442
1	4977	964.460860302628	0.119402572442
1	4982	965.332104962926	0.119402572442
1	4992	965.732714335784	0.292219372303
1	4995	965.852116908226	0.336855316503
1	4998	965.971519480668	0.395355745558
1	5003	966.40792099343	0.119402572442
1	5010	966.672718227246	0.119402572442
1	5013	966.792120799688	0.132023437895
1	5018	967.390794631227	0.119402572442
1	5023	968.173886471252	0.119402572442
1	5028	968.768637425841	0.119402572442
1	5033	968.970101317248	0.119402572442
1	5038	971.03987813102	0.119402572442
1	5043	971.867211664491	0.119402572442
1	5048	972.611028532885	0.119402572442
1	5053	972.875912490722	0.119402572442
1	5058	974.077484681133	0.119402572442
1	5063	975.357305221048	0.119402572442
1	5068	979.938653523533	0.119402572442
1	5073	980.350204851584	0.119402572442
1	5078	981.420743606502	0.119402572442
1	5083	981.936815016703	0.119402572442
1	5088	983.766522126279	0.119402572442
1	5093	988.310978298874	0.119402572442
1	5098	991.237427773828	0.119402572442
1	5103	991.357101161375	0.119402572442
1	5108	992.549891792053	0.119402572442
1	5113	993.631052765038	0.119402572442
1	5120	994.626525525049	0.119402572442
1	5125	994.745928097491	0.122803835985
1	5128	994.865330669933	0.12003311811
1	5135	995.0699010902	0.119402572442
1	5141	995.470510463058	0.460338209589
1	5144	995.5899130355	0.381531270124
1	5149	995.793044740584	0.119402572442
1	5154	997.657647617381	0.119402572442
1	5159	998.04125206929	0.119402572442
2	5	0.574785152359	0
2	12	2.596082024543	0
2	15	2.715484596985	0.038721998118
2	20	3.080289195959	0
2	27	6.800806568716	0
2	30	6.920209141158	0.10968875499
2	35	7.202305676801	0
2	40	9.155441191187	0
2	45	9.750732333877	0
2	52	9.984282309664	0
2	55	10.103684882106	0.062216828595
2	60	10.272226754286	0
2	65	11.30872856127	0
2	70	11.867933484975	0
2	75	12.367292111933	0
2	80	14.166553275749	0
2	85	14.643763449225	0
2	90	15.63778188633	0
2	95	17.226355533714	0
2	100	17.528963338675	0
2	105	18.378429087045	0
2	110	19.021382752339	0
2	115	21.550197027577	0
2	120	26.616669782664	0
2	125	28.03605144467	0
2	130	29.913395403572	0
2	135	32.261335463936	0
2	140	33.05999012962	0
2	145	34.921725637069	0
2	150	35.229328637558	0
2	158	35.629938010416	0.260138243671
2	161	35.749340582858	0.157841827441
2	166	36.174252801421	0
2	171	37.297238936948	0
2	176	38.423746494469	0
2	183	38.567577117599	0
2	186	38.686979690041	0.012466510549
2	191	39.623327492733	0
2	198	41.898313780455	0
2	201	42.017716352897	0.080842715394
2	206	42.691445779166	0
2	213	44.22475256703	0
2	216	44.344155139472	0.032290484947
2	221	45.625745828892	0
2	226	46.860400026732	0
2	231	47.363943833602	0
2	236	49.072818724643	0
2	241	51.914113482622	0
2	246	52.51833800046	0
2	251	52.642656931025	0
2	256	55.12333015564	0
2	261	56.420707254124	0
2	266	57.57316616324	0
2	271	59.042133150233	0
2	276	60.587404657914	0
2	281	63.368816400954	0
2	286	63.5869741454	0
2	291	64.746714440555	0
2	296	66.436948771828	0
2	301	67.119154519622	0
2	307	67.751627747973	0
2	312	70.038078707999	0
2	317	71.502768818157	0
2	322	73.085088428274	0
2	327	73.772141474543	0
2	332	74.835897772948	0
2	337	78.059455138389	0
2	342	78.995625182399	0
2	347	79.374685557325	0
2	352	84.778096642514	0
2	357	84.920466800135	0
2	362	86.439682448074	0
2	367	87.155727130487	0
2	372	88.226202724581	0
2	377	90.497043790087	0
2	382	90.865433922794	0
2	387	92.290210110974	0
2	392	93.699945183595	0
2	397	94.230642590008	0
2	402	95.088510656043	0
2	407	99.919397959417	0
2	412	101.462520160919	0
2	417	102.786751034051	0
2	422	103.813224632396	0
2	427	104.462886424453	0
2	432	105.540583275973	0
2	437	106.206676657285	0
2	442	108.059891894053	0
2	447	108.521819763031	0
2	452	110.937707281733	0
2	458	112.049455285499	0
2	465	113.012334141406	0
2	468	113.131736713848	0.085761931156
2	473	114.872676023053	0
2	478	115.229253007033	0
2	483	115.623072560186	0
2	490	116.037395162614	0
2	493	116.156797735056	0.003183508735
2	498	118.014875118358	0
2	503	118.403909593834	0
2	508	118.829542075477	0
2	513	119.201945540939	0
2	520	119.766854938599	0
2	523	119.886257511041	0.066574757775
2	528	121.570719805173	0
2	533	122.606250242309	0
2	538	123.184816322763	0
2	545	123.492231858555	0
2	548	123.611634430997	0.012317831774
2	553	127.037428785587	0
2	558	128.427856275839	0
2	563	128.754287671513	0
2	568	129.764477105943	0
2	575	130.291522260502	0
2	578	130.410924832944	0.027920011736
2	583	130.951770129292	0
2	588	131.692855858015	0
2	593	133.011894008814	0
2	598	136.096445489679	0
2	603	136.396173900565	0
2	611	136.796783273423	0.06525045118
2	614	136.916185845865	0.130073405304
2	619	137.206431711497	0
2	624	138.350544070277	0
2	629	138.731718714593	0
2	634	140.628497364997	0
2	639	140.79706064167	0
2	646	141.145105093262	0
2	651	141.264507665704	0.060532524589
2	654	141.383910238146	0.100525302597
2	659	142.423059550463	0
2	664	142.690163328126	0
2	669	143.90758449044	0
2	674	145.103603002898	0
2	679	145.470212541356	0
2	684	145.86292544761	0
2	689	146.628880772179	0
2	694	147.620479973234	0
2	701	148.530892966506	0
2	704	148.650295538948	0.053908972587
2	709	152.364808068778	0
2	714	152.861858345635	0
2	719	153.512283511892	0
2	724	153.843601179	0
2	729	155.534744061426	0
2	734	158.127379772784	0
2	739	158.489991536716	0
2	744	162.241192552554	0
2	749	162.706690854619	0
2	754	163.733906481612	0
2	760	164.712469204746	0
2	765	165.053916437865	0
2	770	165.282517979827	0
2	775	165.443219025601	0
2	780	166.386880725511	0
2	785	166.558883189839	0
2	790	167.411135257512	0
2	795	167.887896528215	0
2	800	168.387876838607	0
2	805	169.110266369419	0
2	810	169.689897438917	0
2	815	169.948422613725	0
2	824	171.45215665962	0
2	827	171.571559232062	0.017774099345
2	830	171.690961804504	0.130595443956
2	835	173.195316638515	0
2	840	174.361800393675	0
2	845	174.80860854382	0
2	850	176.003496650214	0
2	855	177.198694530627	0
2	860	177.748945555228	0
2	865	178.286516968223	0
2	870	178.4562198673	0
2	875	178.83826156757	0
2	880	180.604190404399	0
2	885	181.134324861925	0
2	890	181.299734746968	0
2	895	182.632708736953	0
2	900	182.765317483491	0
2	905	182.897186725082	0
2	911	184.081518610419	0
2	916	186.539395189309	0
2	921	187.103392154716	0
2	926	187.888313046947	0
2	933	191.915685055615	0
2	936	192.035087628057	0.025232771592
2	943	192.191677705524	0
2	948	192.311080277966	0.065504534565
2	951	192.430482850408	0.035602059586
2	956	193.318927564779	0
2	961	193.467190908809	0
2	966	195.828656011624	0
2	971	196.970448706956	0
2	976	198.894402188617	0
2	981	200.657359012965	0
2	986	202.229034628896	0
2	991	202.457106802573	0
2	996	203.074401962033	0
2	1001	205.449365679845	0
2	1006	205.623036253394	0
2	1011	206.181260752919	0
2	1016	206.827850981045	0
2	1021	207.107520584726	0
2	1026	207.245713374765	0
2	1033	207.652000745257	0
2	1036	207.771403317699	0.063437131362
2	1041	207.994037633984	0
2	1046	208.161826543168	0
2	1051	210.02694320373	0
2	1056	210.182318247107	0
2	1062	211.083255659169	0
2	1067	212.650977049686	0
2	1072	213.692002665976	0
2	1077	218.504630991487	0
2	1082	220.821498143354	0
2	1087	221.049090720679	0
2	1092	221.254194323022	0
2	1097	221.859749533083	0
2	1102	224.621314615884	0
2	1109	225.916093676209	0
2	1112	226.035496248651	0.059158907569
2	1117	227.592928340351	0
2	1122	228.970280109334	0
2	1131	229.350587095067	0
2	1134	229.469989667509	0.048958791955
2	1137	229.589392239951	0.148525245142
2	1142	230.832197574106	0
2	1147	231.331536803551	0
2	1152	231.937403456818	0
2	1157	232.605730017559	0
2	1162	233.035476045543	0
2	1167	233.759009746291	0
2	1174	233.972439083794	0
2	1177	234.091841656236	0.052889106935
2	1182	234.832604393461	0
2	1187	236.465749368532	0
2	1192	237.2662472889	0
2	1197	237.400481542704	0
2	1204	237.554899371073	0
2	1207	237.674301943515	0.090277698283
2	1215	238.074911316373	0.184199502168
2	1218	238.194313888815	0.09262154639
2	1223	238.807647412456	0
2	1228	239.013558685156	0
2	1233	239.278356269419	0
2	1238	240.422631332998	0
2	1243	240.836627576833	0
2	1248	242.902854202777	0
2	1253	243.202953243478	0
2	1258	244.216236205381	0
2	1263	244.544472320223	0
2	1268	245.898108126958	0
2	1273	246.775588518958	0
2	1278	247.692655951429	0
2	1283	248.086390335042	0
2	1290	253.910061501273	0
2	1293	254.029464073715	0.015819733824
2	1298	255.590693222808	0
2	1303	256.471375593043	0
2	1308	256.848687526009	0
2	1313	257.079310128845	0
2	1318	257.598179282134	0
2	1323	257.748016578408	0
2	1328	258.419001835038	0
2	1333	259.679489085479	0
2	1338	259.920264939922	0
2	1343	262.979900123977	0
2	1348	263.33759228841	0
2	1353	267.28730625843	0
2	1358	267.525292824831	0
2	1364	270.350394952217	0
2	1369	272.08065976633	0
2	1374	274.420323233642	0
2	1379	274.678386541485	0
2	1384	274.802166750611	0
2	1391	275.378798418048	0
2	1394	275.49820099049	0.076269553762
2	1399	279.026807527586	0
2	1404	279.643748001013	0
2	1409	281.294220174825	0
2	1414	281.485822047132	0
2	1419	284.210716450704	0
2	1424	285.328388892896	0
2	1429	285.615657673616	0
2	1434	287.309470173323	0
2	1439	289.579951814947	0
2	1446	290.40692715526	0
2	1449	290.526329727702	0.070758811499
2	1454	292.04660706422	0
2	1459	292.739282001602	0
2	1464	293.613433656166	0
2	1469	294.163949237414	0
2	1474	297.672468379981	0
2	1479	297.798049314364	0
2	1484	298.340972746983	0
2	1489	298.56598216821	0
2	1494	303.131281356805	0
2	1499	303.392498714	0
2	1506	303.564531170503	0
2	1509	303.683933742945	0.109856811072
2	1517	304.207385260058	0
2	1522	304.3267878325	0.04038764997
2	1525	304.446190404942	0.110351923198
2	1530	307.556698966445	0
2	1535	308.869812582099	0
2	1540	309.873948445272	0
2	1545	310.078371113683	0
2	1550	310.867725385703	0
2	1555	311.273380023342	0
2	1560	311.915739473945	0
2	1565	312.289551871367	0
2	1570	312.923904452831	0
2	1575	315.009001753419	0
2	1582	316.127304607321	0
2	1585	316.246707179763	0.094430028607
2	1590	316.406769663729	0
2	1595	316.917408962962	0
2	1600	317.672269397866	0
2	1605	319.171376346285	0
2	1610	319.34303438348	0
2	1615	319.680759076166	0
2	1620	320.281908686052	0
2	1625	320.468587477955	0
2	1630	320.940911179629	0
2	1635	323.355875153892	0
2	1640	324.255943288673	0
2	1645	324.425687096944	0
2	1650	324.673849185857	0
2	1655	325.833026010393	0
2	1660	327.517902056645	0
2	1668	328.048052370614	0
2	1671	328.167454943056	0.038860120863
2	1676	331.015181482995	0
2	1681	331.236172518067	0
2	1686	331.453744241263	0
2	1691	333.124557420661	0
2	1696	334.188345187331	0
2	1701	334.807613382752	0
2	1706	336.019518706036	0
2	1711	337.171139392873	0
2	1718	337.377784904937	0
2	1721	337.497187477379	0.009922567313
2	1726	338.793853927396	0
2	1731	339.341555252286	0
2	1736	339.489205870392	0
2	1743	339.967581690611	0
2	1746	340.086984263053	0.064695844903
2	1751	340.214062901411	0
2	1756	340.534224861256	0
2	1761	340.856535033651	0
2	1766	341.179164485147	0
2	1773	341.528886529873	0
2	1776	341.648289102315	0.06221210328
2	1781	342.180221084914	0
2	1786	344.601189694605	0
2	1791	347.682513173093	0
2	1796	348.156731934205	0
2	1801	348.465338219403	0
2	1806	350.811430454187	0
2	1811	352.502801562474	0
2	1817	352.903410935332	0.128139157712
2	1822	353.611376908605	0
2	1827	353.883082972775	0
2	1832	354.60617338598	0
2	1837	359.599494222935	0
2	1846	361.067031998686	0
2	1849	361.186434571128	0.092662494942
2	1852	361.30583714357	0.122051111545
2	1857	361.73643131032	0
2	1862	362.045943323413	0
2	1867	364.736826030795	0
2	1872	365.106322107803	0
2	1879	367.48282377525	0
2	1882	367.602226347692	0.047098678626
2	1887	367.877884360205	0
2	1892	368.078928723453	0
2	1897	368.535568968731	0
2	1902	369.005800745132	0
2	1907	369.202412652823	0
2	1912	369.877828935187	0
2	1917	370.250444385057	0
2	1922	370.848444983803	0
2	1927	371.042602631486	0
2	1932	371.35816069273	0
2	1937	372.056006580933	0
2	1942	372.801544541	0
2	1947	373.916417905937	0
2	1954	376.570779940991	0
2	1957	376.690182513433	0.026887488313
2	1962	376.99342248265	0
2	1968	377.394031855508	0.274646898402
2	1973	378.980328294464	0
2	1978	379.485463284075	0
2	1983	379.971717473353	0
2	1988	381.666334389391	0
2	1993	382.564773386669	0
2	1998	387.369821839467	0
2	2003	388.011303539898	0
2	2008	388.473449176767	0
2	2013	388.63402026282	0
2	2018	389.060902346204	0
2	2023	389.80187540568	0
2	2028	391.058067425225	0
2	2035	394.335979740531	0
2	2038	394.455382312973	0.084660453459
2	2043	395.210080195769	0
2	2048	396.145085337296	0
2	2053	398.249482307099	0
2	2058	399.343147829057	0
2	2065	399.579308967427	0
2	2068	399.698711539869	0.046852081272
2	2075	401.656552265594	0
2	2080	401.775954838036	0.003397382563
2	2083	401.895357410478	0.024818825886
2	2088	404.319692139613	0
2	2093	404.557712567485	0
2	2098	405.080768918971	0
2	2103	405.413063476398	0
2	2108	406.131624705188	0
2	2113	407.601422163614	0
2	2119	409.711634554292	0
2	2124	410.087749462315	0
2	2129	410.222472837069	0
2	2134	411.119574352456	0
2	2139	411.936185754442	0
2	2144	412.142494893663	0
2	2149	412.515878521572	0
2	2154	412.854913718821	0
2	2159	415.62733489899	0
2	2164	415.959528732332	0
2	2169	419.404238849033	0
2	2174	421.942602396334	0
2	2179	422.625219793125	0
2	2184	422.948493602272	0
2	2189	423.746136283751	0
2	2194	424.338388040306	0
2	2199	427.556538307096	0
2	2204	427.99146458734	0
2	2211	428.156558907034	0
2	2214	428.275961479476	0.118699140925
2	2219	428.476362045903	0
2	2224	428.926947892595	0
2	2229	432.40826046788	0
2	2234	434.724006611527	0
2	2239	435.181820932006	0
2	2244	435.773285032733	0
2	2249	436.335742568361	0
2	2256	438.593620288146	0
2	2261	438.713022860588	0.060234198187
2	2264	438.83242543303	0.027969367775
2	2270	440.114786503349	0
2	2277	441.052166836628	0
2	2280	441.17156940907	0.019803315162
2	2285	441.471023876836	0
2	2290	442.866158888176	0
2	2295	443.157869815165	0
2	2300	448.292231003588	0
2	2305	448.922403075035	0
2	2312	453.317695946323	0
2	2315	453.437098518765	0.048786539728
2	2320	454.813124325187	0
2	2325	455.42124088778	0
2	2330	457.422818366638	0
2	2335	457.681145480178	0
2	2340	458.07770219412	0
2	2345	459.114744467528	0
2	2350	460.272752412103	0
2	2355	461.980038833631	0
2	2360	463.658503050413	0
2	2365	463.964375137513	0
2	2372	464.516896900831	0
2	2375	464.636299473273	0.068532453977
2	2380	464.952979606555	0
2	2385	465.306629230457	0
2	2390	466.288877484274	0
2	2395	467.076838652597	0
2	2400	468.850576633625	0
2	2405	469.680335002956	0
2	2410	472.147233990622	0
2	2415	473.4462326761	0
2	2421	474.996777239946	0
2	2426	477.275717882079	0
2	2431	480.002373144566	0
2	2436	480.764661649873	0
2	2441	481.37087640198	0
2	2446	481.798514217487	0
2	2453	483.118375636252	0
2	2456	483.237778208694	0.10229508715
2	2461	487.257731756977	0
2	2466	488.287860886033	0
2	2473	489.217363517244	0
2	2476	489.336766089686	0.059785446968
2	2481	490.31562606522	0
2	2486	491.017999381768	0
2	2491	491.277755497583	0
2	2498	492.029456531763	0
2	2501	492.148859104205	0.084944200587
2	2508	493.448460645631	0
2	2511	493.567863218073	0.090433673837
2	2516	496.321150018487	0
2	2521	496.997305214145	0
2	2526	497.172216676761	0
2	2531	498.389737247128	0
2	2538	504.645220966325	0
2	2541	504.764623538767	0.003657546402
2	2546	505.817880694615	0
2	2551	506.831228021848	0
2	2556	508.314737188513	0
2	2561	508.795906166401	0
2	2566	509.675203989684	0
2	2572	512.101670651869	0
2	2577	512.542873704342	0
2	2582	512.818004465523	0
2	2587	513.063717931161	0
2	2592	513.205182311309	0
2	2597	513.818158713334	0
2	2602	515.271959900198	0
2	2607	519.126309218077	0
2	2612	519.459688666353	0
2	2617	520.454604495891	0
2	2622	520.618043538261	0
2	2627	522.429819713745	0
2	2632	522.716652510972	0
2	2637	523.131349738486	0
2	2642	525.407971087714	0
2	2647	525.605258267766	0
2	2652	527.381993992174	0
2	2657	530.013315289606	0
2	2662	530.417524761306	0
2	2667	530.640480878178	0
2	2672	531.039768275413	0
2	2677	532.224045702253	0
2	2682	532.921519574089	0
2	2687	534.140105331122	0
2	2692	534.759302464326	0
2	2697	535.041276119691	0
2	2702	536.304635451477	0
2	2707	536.913619303283	0
2	2714	537.239673010576	0
2	2717	537.359075583018	0.111818508324
2	2723	537.759684955876	0.04105518594
2	2730	538.378188103747	0
2	2733	538.497590676189	0.031536211041
2	2738	538.825481758144	0
2	2743	539.421081667127	0
2	2748	542.382957331141	0
2	2753	544.490308854912	0
2	2758	545.694260768183	0
2	2765	546.213770425135	0
2	2768	546.333172997577	0.031160908081
2	2773	547.428191662714	0
2	2780	547.852575092793	0
2	2785	547.971977665235	0.025722141278
2	2788	548.091380237677	0.062301233019
2	2793	548.370746585044	0
2	2798	551.749798427444	0
2	2803	552.459116625194	0
2	2808	552.942921106763	0
2	2813	554.622261832835	0
2	2818	555.095640344492	0
2	2823	555.861495823575	0
2	2828	556.279930271021	0
2	2833	556.837288577517	0
2	2838	557.031520441994	0
2	2843	560.313895373855	0
2	2848	561.194232215127	0
2	2853	562.309765903042	0
2	2858	565.047785711158	0
2	2863	565.857595416518	0
2	2868	568.6354595848	0
2	2874	569.081061102532	0
2	2879	569.774119327116	0
2	2884	570.608017941729	0
2	2891	572.085317238107	0
2	2896	572.204719810549	0.075056827907
2	2899	572.324122382991	0.009877969349
2	2904	572.463673219474	0
2	2909	573.357645081567	0
2	2914	573.648117610226	0
2	2919	579.453586839176	0
2	2926	580.319129159966	0
2	2929	580.438531732408	0.114518666418
2	2936	581.406296503857	0
2	2939	581.525699076299	0.084954203934
2	2944	582.027871023532	0
2	2949	582.251526651859	0
2	2954	583.103780467182	0
2	2959	583.57906762495	0
2	2964	584.661280685797	0
2	2969	585.096616968768	0
2	2974	587.056225525221	0
2	2979	587.554539092395	0
2	2984	588.513805036709	0
2	2991	589.032582485584	0
2	2994	589.151985058026	0.065153008441
2	2999	591.418475011941	0
2	3004	594.036456211421	0
2	3009	594.214095287879	0
2	3018	594.760439442251	0
2	3023	594.879842014693	0.057457557062
2	3027	595.280451387551	0.418519786695
2	3030	595.399853959993	0.437089691933
2	3035	595.809279403361	0
2	3040	597.126831241733	0
2	3045	597.504363799352	0
2	3050	598.302512928856	0
2	3055	600.247546352525	0
2	3062	601.880831181661	0
2	3067	602.000233754103	0.116042811666
2	3070	602.119636326545	0.087579147596
2	3075	603.769139825815	0
2	3080	604.333812263977	0
2	3085	604.820961868438	0
2	3090	605.529806767899	0
2	3095	606.341285984311	0
2	3100	607.764627000117	0
2	3105	609.441840450888	0
2	3110	610.495819825502	0
2	3115	611.046997114636	0
2	3120	611.368103289684	0
2	3127	611.736159716354	0
2	3130	611.855562288796	0.117327989438
2	3135	612.65081733861	0
2	3142	613.97756713088	0
2	3145	614.096969703322	0.081850134121
2	3150	615.409508365882	0
2	3159	617.924187909112	0
2	3164	618.043590481554	0.062109900153
2	3167	618.162993053996	0.15990101712
2	3170	618.282395626438	0.143464069643
2	3176	618.950853276067	0
2	3181	619.30963060318	0
2	3186	621.599312480283	0
2	3191	621.90822303705	0
2	3196	622.296648215291	0
2	3201	623.076817442468	0
2	3206	623.718056466062	0
2	3211	624.967446725284	0
2	3218	625.367439832843	0
2	3221	625.486842405285	0.043011858058
2	3226	625.920306613546	0
2	3231	627.440407219724	0
2	3236	629.095223890652	0
2	3241	629.870608095235	0
2	3246	630.547080189342	0
2	3251	630.781233936695	0
2	3258	631.043236475177	0
2	3261	631.162639047619	0.103436441567
2	3266	632.305255358584	0
2	3271	635.571539780199	0
2	3276	636.649789273499	0
2	3283	638.107641972001	0
2	3286	638.227044544443	0.087792724323
2	3291	638.939056531604	0
2	3298	639.420848261726	0
2	3301	639.540250834168	0.004498217033
2	3306	640.110370991208	0
2	3311	642.116262916079	0
2	3316	642.989834380934	0
2	3321	643.818223049163	0
2	3329	644.729662680636	0
2	3332	644.849065253078	0.025286893579
2	3337	648.388859362164	0
2	3342	648.723834713765	0
2	3347	650.912249190649	0
2	3352	651.49519844767	0
2	3357	651.735840987074	0
2	3362	653.326639575148	0
2	3367	654.267690403224	0
2	3372	654.937143556751	0
2	3377	655.292382469015	0
2	3382	656.82718236189	0
2	3387	656.967894563899	0
2	3392	658.167083008303	0
2	3397	658.342566622769	0
2	3402	658.468634659451	0
2	3407	660.250131629644	0
2	3412	660.526505596068	0
2	3417	660.947407044742	0
2	3422	661.516205547395	0
2	3427	662.138740364594	0
2	3432	663.249920641098	0
2	3437	663.401397454139	0
2	3442	663.764186169634	0
2	3447	664.650367353281	0
2	3454	666.65312400833	0
2	3457	666.772526580772	0.051274666731
2	3462	667.186933111909	0
2	3467	667.617382513751	0
2	3472	668.819514069488	0
2	3478	669.220123442346	0.28033061234
2	3483	670.209115003807	0
2	3488	670.933612037476	0
2	3493	671.38041186763	0
2	3498	672.755520771248	0
2	3503	673.572460848497	0
2	3508	674.223292284723	0
2	3513	674.561660189103	0
2	3518	677.806141376568	0
2	3523	680.609273905914	0
2	3528	681.968893330676	0
2	3533	682.307264251693	0
2	3538	682.53376387432	0
2	3543	682.840585472503	0
2	3548	683.790400496937	0
2	3553	684.150668205877	0
2	3560	686.738267150402	0
2	3563	686.857669722844	0.04756766931
2	3568	687.765925609849	0
2	3573	688.619374549679	0
2	3578	691.1022795976	0
2	3583	691.244766932549	0
2	3588	692.121305964789	0
2	3593	692.70051210414	0
2	3598	692.93573383588	0
2	3603	693.639404383888	0
2	3608	693.982436785581	0
2	3613	695.672392732618	0
2	3618	695.973837930511	0
2	3623	696.241181254566	0
2	3631	697.483532418513	0
2	3634	697.602934990955	0.018737858143
2	3639	697.841008088851	0
2	3644	698.223521120614	0
2	3649	699.159851954502	0
2	3654	699.968482987978	0
2	3659	700.18438537656	0
2	3664	700.972068988402	0
2	3669	701.241383680757	0
2	3676	702.353279717425	0
2	3681	702.472682289867	0.014523189958
2	3684	702.592084862309	0.114881339861
2	3689	703.42099877984	0
2	3694	705.312683312396	0
2	3699	705.841434099277	0
2	3704	706.290796383344	0
2	3709	706.774422086258	0
2	3714	708.226570124312	0
2	3719	708.905409154477	0
2	3724	710.295539814084	0
2	3729	710.982308783345	0
2	3736	712.227283696348	0
2	3739	712.34668626879	0.095239464656
2	3744	713.808724450643	0
2	3749	714.136594336453	0
2	3754	714.45817436748	0
2	3759	714.905083431332	0
2	3764	715.094389160126	0
2	3769	716.595905925929	0
2	3774	716.848263744843	0
2	3780	717.248873117701	0.098187184946
2	3785	720.443099098409	0
2	3790	721.335409859143	0
2	3795	723.607777997165	0
2	3800	728.039086913374	0
2	3805	728.398291421513	0
2	3810	730.013992309499	0
2	3815	731.903074546142	0
2	3820	732.860097802066	0
2	3825	733.004497120575	0
2	3830	733.17837325329	0
2	3835	733.413647132321	0
2	3840	733.576532565126	0
2	3845	736.758476840292	0
2	3850	737.209151173562	0
2	3857	738.135171261811	0
2	3860	738.254573834253	0.048820848579
2	3865	739.268609120476	0
2	3870	739.730192007426	0
2	3875	741.385296421573	0
2	3880	741.96839519616	0
2	3885	743.254927006845	0
2	3890	744.099122700475	0
2	3895	744.744072104086	0
2	3900	746.144571466301	0
2	3905	747.497499223963	0
2	3910	747.63492640561	0
2	3915	748.350521967715	0
2	3920	749.280004065804	0
2	3925	749.534678218784	0
2	3931	753.354004461594	0
2	3936	755.41856489769	0
2	3941	755.845876921046	0
2	3946	757.872735435882	0
2	3951	758.907764223188	0
2	3956	761.847391909591	0
2	3961	762.311733596878	0
2	3966	764.341409822374	0
2	3971	765.823048460717	0
2	3978	766.558562935833	0
2	3981	766.677965508275	0.044178417271
2	3986	766.976374658093	0
2	3991	769.454824002421	0
2	3998	770.608429065407	0
2	4001	770.727831637849	0.052445165143
2	4006	771.164702504307	0
2	4011	772.467295107827	0
2	4016	775.828126768293	0
2	4021	776.845498878928	0
2	4026	778.206487269011	0
2	4031	778.638546595147	0
2	4036	781.681331837927	0
2	4041	782.356202647156	0
2	4046	782.588789980011	0
2	4053	783.715239367369	0
2	4056	783.834641939811	0.026180839713
2	4061	785.12171861855	0
2	4066	785.626434055979	0
2	4073	786.178921648401	0
2	4076	786.298324220843	0.109612180076
2	4082	786.698933593701	0.069571514873
2	4087	789.127822675056	0
2	4092	790.558285753236	0
2	4099	790.947412533016	0
2	4102	791.066815105458	0.046678131647
2	4107	795.904973689394	0
2	4112	797.29997391117	0
2	4117	799.697259323417	0
2	4122	800.449406402035	0
2	4127	801.020218006157	0
2	4132	801.43577462684	0
2	4137	804.669790661299	0
2	4142	805.615629853701	0
2	4149	805.935091779275	0
2	4152	806.054494351717	0.020020982698
2	4157	807.263222806558	0
2	4162	807.455503130739	0
2	4167	808.521222566115	0
2	4172	809.286305940827	0
2	4177	810.09215154214	0
2	4182	810.543157982563	0
2	4189	810.819627176819	0
2	4192	810.939029749261	0.105906983861
2	4197	811.797308687917	0
2	4202	812.47374002435	0
2	4207	813.391006375266	0
2	4214	813.687968599669	0
2	4217	813.807371172111	0.080602391182
2	4222	814.481237274868	0
2	4227	816.03625587344	0
2	4233	816.807847500812	0
2	4238	817.476698521063	0
2	4243	818.112525982969	0
2	4248	818.426948780434	0
2	4253	819.021120021793	0
2	4258	824.554086083799	0
2	4265	827.261029145916	0
2	4268	827.380431718358	0.03852845997
2	4273	827.767392131935	0
2	4278	831.615704671703	0
2	4283	832.60676139916	0
2	4288	833.030936444335	0
2	4293	833.627708424378	0
2	4298	834.219833301696	0
2	4303	834.708830012614	0
2	4308	834.927817206527	0
2	4313	835.097131935056	0
2	4318	835.341879507673	0
2	4323	837.251378280817	0
2	4328	838.149396865127	0
2	4333	838.943323881338	0
2	4338	839.212353038781	0
2	4343	839.543665522174	0
2	4348	841.421447078747	0
2	4353	841.634726922059	0
2	4358	842.325596601106	0
2	4363	842.604364057352	0
2	4368	842.740085122885	0
2	4373	844.080819916612	0
2	4378	844.41201908167	0
2	4384	844.852436155213	0
2	4389	845.979772530464	0
2	4394	846.188570109694	0
2	4399	847.341819044266	0
2	4404	847.921321900405	0
2	4409	849.946323364071	0
2	4414	850.085233448211	0
2	4419	850.385745151869	0
2	4424	850.626742951141	0
2	4429	852.093119190577	0
2	4434	853.913192283799	0
2	4439	854.219869366786	0
2	4444	854.636557096947	0
2	4449	856.929374548464	0
2	4454	857.206310457794	0
2	4461	858.926409782404	0
2	4464	859.045812354846	0.03914215315
2	4469	862.039379089262	0
2	4474	862.439254925352	0
2	4479	863.71691044354	0
2	4484	863.850024452615	0
2	4489	866.980167824207	0
2	4494	867.468887851656	0
2	4499	868.973125720154	0
2	4504	869.505464542745	0
2	4509	870.02113206845	0
2	4514	870.272298227699	0
2	4519	871.599301568378	0
2	4524	871.82256126143	0
2	4529	872.111370054111	0
2	4537	872.691291777979	0
2	4540	872.810694350421	0.117876111163
2	4545	874.007074936122	0
2	4550	878.169203792129	0
2	4555	879.597363966736	0
2	4560	882.041587554584	0
2	4565	882.367857587843	0
2	4570	883.509702711998	0
2	4575	884.834111785844	0
2	4580	885.265677935437	0
2	4585	887.539383337742	0
2	4590	887.867918892359	0
2	4595	891.996297352612	0
2	4600	892.167425700462	0
2	4605	893.107083425693	0
2	4610	893.546311161461	0
2	4615	894.375475379771	0
2	4620	896.440320648752	0
2	4625	897.169949014221	0
2	4630	897.429263191328	0
2	4635	901.592970355998	0
2	4640	901.97816605092	0
2	4645	902.125646860301	0
2	4650	903.606559609967	0
2	4655	903.814664764555	0
2	4662	904.440698484079	0
2	4665	904.560101056521	0.024995993014
2	4672	904.843143377747	0
2	4675	904.962545950189	0.051042802948
2	4680	906.579657077614	0
2	4686	907.081797172798	0
2	4691	908.822160463347	0
2	4696	909.012849406703	0
2	4701	911.545714902227	0
2	4706	912.004505256291	0
2	4711	912.992651384547	0
2	4716	913.996277075706	0
2	4721	914.537367173995	0
2	4726	915.290038872046	0
2	4731	917.003130900478	0
2	4736	917.673642072685	0
2	4741	918.093736351599	0
2	4746	918.448467332825	0
2	4751	919.832183612738	0
2	4758	920.349232993667	0
2	4761	920.468635566109	0.016104694446
2	4766	920.78913831864	0
2	4773	921.84152896362	0
2	4776	921.960931536062	0.025153235475
2	4781	922.788750360631	0
2	4786	925.881196493418	0
2	4791	926.646093662039	0
2	4796	927.401669506424	0
2	4801	927.73784677639	0
2	4806	929.187138617208	0
2	4811	930.333105553737	0
2	4816	933.650489025843	0
2	4821	933.854374863666	0
2	4826	934.678065349071	0
2	4833	936.664520291658	0
2	4837	937.065129664516	0.323542056693
2	4842	939.254151286615	0
2	4847	940.584559786419	0
2	4852	941.668132742706	0
2	4857	942.145175408736	0
2	4862	942.62731423293	0
2	4867	942.831551993925	0
2	4872	944.280258155719	0
2	4877	944.893812918838	0
2	4882	945.323041513589	0
2	4887	946.96166627664	0
2	4892	947.553838118059	0
2	4897	948.553350203833	0
2	4902	949.071380915839	0
2	4907	950.453702980903	0
2	4912	952.051045107581	0
2	4917	955.710155184021	0
2	4922	957.056645379052	0
2	4927	957.944243842805	0
2	4932	959.185034928328	0
2	4939	961.124654773818	0
2	4942	961.24405734626	0.055186931178
2	4947	962.181648706003	0
2	4952	962.57019635613	0
2	4959	963.132037067999	0
2	4962	963.251439640441	0.078868270545
2	4967	963.431864522836	0
2	4972	963.981535855961	0
2	4977	964.460860302628	0
2	4982	965.332104962926	0
2	4992	965.732714335784	0.172816799861
2	4995	965.852116908226	0.217452744061
2	4998	965.971519480668	0.275953173116
2	5003	966.40792099343	0
2	5010	966.672718227246	0
2	5013	966.792120799688	0.012620865453
2	5018	967.390794631227	0
2	5023	968.173886471252	0
2	5028	968.768637425841	0
2	5033	968.970101317248	0
2	5038	971.03987813102	0
2	5043	971.867211664491	0
2	5048	972.611028532885	0
2	5053	972.875912490722	0
2	5058	974.077484681133	0
2	5063	975.357305221048	0
2	5068	979.938653523533	0
2	5073	980.350204851584	0
2	5078	981.420743606502	0
2	5083	981.936815016703	0
2	5088	983.766522126279	0
2	5093	988.310978298874	0
2	5098	991.237427773828	0
2	5103	991.357101161375	0
2	5108	992.549891792053	0
2	5113	993.631052765038	0
2	5120	994.626525525049	0
2	5125	994.745928097491	0.003401263543
2	5128	994.865330669933	0.000630545668
2	5135	995.0699010902	0
2	5141	995.470510463058	0.340935637147
2	5144	995.5899130355	0.262128697682
2	5149	995.793044740584	0
2	5154	997.657647617381	0
2	5159	998.04125206929	0
3	5	0.574785152359	0
3	12	2.596082024543	0
3	15	2.715484596985	2
3	20	3.080289195959	0
3	27	6.800806568716	0
3	30	6.920209141158	2
3	35	7.202305676801	0
3	40	9.155441191187	0
3	45	9.750732333877	0
3	52	9.984282309664	0
3	55	10.103684882106	2
3	60	10.272226754286	0
3	65	11.30872856127	0
3	70	11.867933484975	0
3	75	12.367292111933	0
3	80	14.166553275749	0
3	85	14.643763449225	0
3	90	15.63778188633	0
3	95	17.226355533714	0
3	100	17.528963338675	0
3	105	18.378429087045	0
3	110	19.021382752339	0
3	115	21.550197027577	0
3	120	26.616669782664	0
3	125	28.03605144467	0
3	130	29.913395403572	0
3	135	32.261335463936	0
3	140	33.05999012962	0
3	145	34.921725637069	0
3	150	35.229328637558	0
3	158	35.629938010416	2
3	161	35.749340582858	2
3	166	36.174252801421	0
3	171	37.297238936948	0
3	176	38.423746494469	0
3	183	38.567577117599	0
3	186	38.686979690041	2
3	191	39.623327492733	0
3	198	41.898313780455	0
3	201	42.017716352897	2
3	206	42.691445779166	0
3	213	44.22475256703	0
3	216	44.344155139472	2
3	221	45.625745828892	0
3	226	46.860400026732	0
3	231	47.363943833602	0
3	236	49.072818724643	0
3	241	51.914113482622	0
3	246	52.51833800046	0
3	251	52.642656931025	0
3	256	55.12333015564	0
3	261	56.420707254124	0
3	266	57.57316616324	0
3	271	59.042133150233	0
3	276	60.587404657914	0
3	281	63.368816400954	0
3	286	63.5869741454	0
3	291	64.746714440555	0
3	296	66.436948771828	0
3	301	67.119154519622	0
3	307	67.751627747973	0
3	312	70.038078707999	0
3	317	71.502768818157	0
3	322	73.085088428274	0
3	327	73.772141474543	0
3	332	74.835897772948	0
3	337	78.059455138389	0
3	342	78.995625182399	0
3	347	79.374685557325	0
3	352	84.778096642514	0
3	357	84.920466800135	0
3	362	86.439682448074	0
3	367	87.155727130487	0
3	372	88.226202724581	0
3	377	90.497043790087	0
3	382	90.865433922794	0
3	387	92.290210110974	0
3	392	93.699945183595	0
3	397	94.230642590008	0
3	402	95.088510656043	0
3	407	99.919397959417	0
3	412	101.462520160919	0
3	417	102.786751034051	0
3	422	103.813224632396	0
3	427	104.462886424453	0
3	432	105.540583275973	0
3	437	106.206676657285	0
3	442	108.059891894053	0
3	447	108.521819763031	0
3	452	110.937707281733	0
3	458	112.049455285499	0
3	465	113.012334141406	0
3	468	113.131736713848	2
3	473	114.872676023053	0
3	478	115.229253007033	0
3	483	115.623072560186	0
3	490	116.037395162614	0
3	493	116.156797735056	2
3	498	118.014875118358	0
3	503	118.403909593834	0
3	508	118.829542075477	0
3	513	119.201945540939	0
3	520	119.766854938599	0
3	523	119.886257511041	2
3	528	121.570719805173	0
3	533	122.606250242309	0
3	538	123.184816322763	0
3	545	123.492231858555	0
3	548	123.611634430997	2
3	553	127.037428785587	0
3	558	128.427856275839	0
3	563	128.754287671513	0
3	568	129.764477105943	0
3	575	130.291522260502	0
3	578	130.410924832944	2
3	583	130.951770129292	0
3	588	131.692855858015	0
3	593	133.011894008814	0
3	598	136.096445489679	0
3	603	136.396173900565	0
3	611	136.796783273423	2
3	614	136.916185845865	2
3	619	137.206431711497	0
3	624	138.350544070277	0
3	629	138.731718714593	0
3	634	140.628497364997	0
3	639	140.79706064167	0
3	646	141.145105093262	0
3	651	141.264507665704	2
3	654	141.383910238146	2
3	659	142.423059550463	0
3	664	142.690163328126	0
3	669	143.90758449044	0
3	674	145.103603002898	0
3	679	145.470212541356	0
3	684	145.86292544761	0
3	689	146.628880772179	0
3	694	147.620479973234	0
3	701	148.530892966506	0
3	704	148.650295538948	2
3	709	152.364808068778	0
3	714	152.861858345635	0
3	719	153.512283511892	0
3	724	153.843601179	0
3	729	155.534744061426	0
3	734	158.127379772784	0
3	739	158.489991536716	0
3	744	162.241192552554	0
3	749	162.706690854619	0
3	754	163.733906481612	0
3	760	164.712469204746	0
3	765	165.053916437865	0
3	770	165.282517979827	0
3	775	165.443219025601	0
3	780	166.386880725511	0
3	785	166.558883189839	0
3	790	167.411135257512	0
3	795	167.887896528215	0
3	800	168.387876838607	0
3	805	169.110266369419	0
3	810	169.689897438917	0
3	815	169.948422613725	0
3	824	171.45215665962	0
3	827	171.571559232062	2
3	830	171.690961804504	2
3	835	173.195316638515	0
3	840	174.361800393675	0
3	845	174.80860854382	0
3	850	176.003496650214	0
3	855	177.198694530627	0
3	860	177.748945555228	0
3	865	178.286516968223	0
3	870	178.4562198673	0
3	875	178.83826156757	0
[...]
7	2214	428.275961479476	0
7	2219	428.476362045903	0
7	2224	428.926947892595	0
7	2229	432.40826046788	0
7	2234	434.724006611527	0
7	2239	435.181820932006	0
7	2244	435.773285032733	0
7	2249	436.335742568361	0
7	2256	438.593620288146	0
7	2261	438.713022860588	0
7	2264	438.83242543303	0
7	2270	440.114786503349	0
7	2277	441.052166836628	0
7	2280	441.17156940907	0
7	2285	441.471023876836	0
7	2290	442.866158888176	0
7	2295	443.157869815165	0
7	2300	448.292231003588	0
7	2305	448.922403075035	0
7	2312	453.317695946323	0
7	2315	453.437098518765	0
7	2320	454.813124325187	0
7	2325	455.42124088778	0
7	2330	457.422818366638	0
7	2335	457.681145480178	0
7	2340	458.07770219412	0
7	2345	459.114744467528	0
7	2350	460.272752412103	0
7	2355	461.980038833631	0
7	2360	463.658503050413	0
7	2365	463.964375137513	0
7	2372	464.516896900831	0
7	2375	464.636299473273	0
7	2380	464.952979606555	0
7	2385	465.306629230457	0
7	2390	466.288877484274	0
7	2395	467.076838652597	0
7	2400	468.850576633625	0
7	2405	469.680335002956	0
7	2410	472.147233990622	0
7	2415	473.4462326761	0
7	2421	474.996777239946	0
7	2426	477.275717882079	0
7	2431	480.002373144566	0
7	2436	480.764661649873	0
7	2441	481.37087640198	0
7	2446	481.798514217487	0
7	2453	483.118375636252	0
7	2456	483.237778208694	0
7	2461	487.257731756977	0
7	2466	488.287860886033	0
7	2473	489.217363517244	0
7	2476	489.336766089686	0
7	2481	490.31562606522	0
7	2486	491.017999381768	0
7	2491	491.277755497583	0
7	2498	492.029456531763	0
7	2501	492.148859104205	0
7	2508	493.448460645631	0
7	2511	493.567863218073	0
7	2516	496.321150018487	0
7	2521	496.997305214145	0
7	2526	497.172216676761	0
7	2531	498.389737247128	0
7	2538	504.645220966325	0
7	2541	504.764623538767	0
7	2546	505.817880694615	0
7	2551	506.831228021848	0
7	2556	508.314737188513	0
7	2561	508.795906166401	0
7	2566	509.675203989684	0
7	2572	512.101670651869	0
7	2577	512.542873704342	0
7	2582	512.818004465523	0
7	2587	513.063717931161	0
7	2592	513.205182311309	0
7	2597	513.818158713334	0
7	2602	515.271959900198	0
7	2607	519.126309218077	0
7	2612	519.459688666353	0
7	2617	520.454604495891	0
7	2622	520.618043538261	0
7	2627	522.429819713745	0
7	2632	522.716652510972	0
7	2637	523.131349738486	0
7	2642	525.407971087714	0
7	2647	525.605258267766	0
7	2652	527.381993992174	0
7	2657	530.013315289606	0
7	2662	530.417524761306	0
7	2667	530.640480878178	0
7	2672	531.039768275413	0
7	2677	532.224045702253	0
7	2682	532.921519574089	0
7	2687	534.140105331122	0
7	2692	534.759302464326	0
7	2697	535.041276119691	0
7	2702	536.304635451477	0
7	2707	536.913619303283	0
7	2714	537.239673010576	0
7	2717	537.359075583018	0
7	2723	537.759684955876	0
7	2730	538.378188103747	0
7	2733	538.497590676189	0
7	2738	538.825481758144	0
7	2743	539.421081667127	0
7	2748	542.382957331141	0
7	2753	544.490308854912	0
7	2758	545.694260768183	0
7	2765	546.213770425135	0
7	2768	546.333172997577	0
7	2773	547.428191662714	0
7	2780	547.852575092793	0
7	2785	547.971977665235	0
7	2788	548.091380237677	0
7	2793	548.370746585044	0
7	2798	551.749798427444	0
7	2803	552.459116625194	0
7	2808	552.942921106763	0
7	2813	554.622261832835	0
7	2818	555.095640344492	0
7	2823	555.861495823575	0
7	2828	556.279930271021	0
7	2833	556.837288577517	0
7	2838	557.031520441994	0
7	2843	560.313895373855	0
7	2848	561.194232215127	0
7	2853	562.309765903042	0
7	2858	565.047785711158	0
7	2863	565.857595416518	0
7	2868	568.6354595848	0
7	2874	569.081061102532	0
7	2879	569.774119327116	0
7	2884	570.608017941729	0
7	2891	572.085317238107	0
7	2896	572.204719810549	0
7	2899	572.324122382991	0
7	2904	572.463673219474	0
7	2909	573.357645081567	0
7	2914	573.648117610226	0
7	2919	579.453586839176	0
7	2926	580.319129159966	0
7	2929	580.438531732408	0
7	2936	581.406296503857	0
7	2939	581.525699076299	0
7	2944	582.027871023532	0
7	2949	582.251526651859	0
7	2954	583.103780467182	0
7	2959	583.57906762495	0
7	2964	584.661280685797	0
7	2969	585.096616968768	0
7	2974	587.056225525221	0
7	2979	587.554539092395	0
7	2984	588.513805036709	0
7	2991	589.032582485584	0
7	2994	589.151985058026	0
7	2999	591.418475011941	0
7	3004	594.036456211421	0
7	3009	594.214095287879	0
7	3018	594.760439442251	0
7	3023	594.879842014693	0
7	3027	595.280451387551	0
7	3030	595.399853959993	0
7	3035	595.809279403361	0
7	3040	597.126831241733	0
7	3045	597.504363799352	0
7	3050	598.302512928856	0
7	3055	600.247546352525	0
7	3062	601.880831181661	0
7	3067	602.000233754103	0
7	3070	602.119636326545	0
7	3075	603.769139825815	0
7	3080	604.333812263977	0
7	3085	604.820961868438	0
7	3090	605.529806767899	0
7	3095	606.341285984311	0
7	3100	607.764627000117	0
7	3105	609.441840450888	0
7	3110	610.495819825502	0
7	3115	611.046997114636	0
7	3120	611.368103289684	0
7	3127	611.736159716354	0
7	3130	611.855562288796	0
7	3135	612.65081733861	0
7	3142	613.97756713088	0
7	3145	614.096969703322	0
7	3150	615.409508365882	0
7	3159	617.924187909112	0
7	3164	618.043590481554	0
7	3167	618.162993053996	0
7	3170	618.282395626438	0
7	3176	618.950853276067	0
7	3181	619.30963060318	0
7	3186	621.599312480283	0
7	3191	621.90822303705	0
7	3196	622.296648215291	0
7	3201	623.076817442468	0
7	3206	623.718056466062	0
7	3211	624.967446725284	0
7	3218	625.367439832843	0
7	3221	625.486842405285	0
7	3226	625.920306613546	0
7	3231	627.440407219724	0
7	3236	629.095223890652	0
7	3241	629.870608095235	0
7	3246	630.547080189342	0
7	3251	630.781233936695	0
7	3258	631.043236475177	0
7	3261	631.162639047619	0
7	3266	632.305255358584	0
7	3271	635.571539780199	0
7	3276	636.649789273499	0
7	3283	638.107641972001	0
7	3286	638.227044544443	0
7	3291	638.939056531604	0
7	3298	639.420848261726	0
7	3301	639.540250834168	0
7	3306	640.110370991208	0
7	3311	642.116262916079	0
7	3316	642.989834380934	0
7	3321	643.818223049163	0
7	3329	644.729662680636	0
7	3332	644.849065253078	0
7	3337	648.388859362164	0
7	3342	648.723834713765	0
7	3347	650.912249190649	0
7	3352	651.49519844767	0
7	3357	651.735840987074	0
7	3362	653.326639575148	0
7	3367	654.267690403224	0
7	3372	654.937143556751	0
7	3377	655.292382469015	0
7	3382	656.82718236189	0
7	3387	656.967894563899	0
7	3392	658.167083008303	0
7	3397	658.342566622769	0
7	3402	658.468634659451	0
7	3407	660.250131629644	0
7	3412	660.526505596068	0
7	3417	660.947407044742	0
7	3422	661.516205547395	0
7	3427	662.138740364594	0
7	3432	663.249920641098	0
7	3437	663.401397454139	0
7	3442	663.764186169634	0
7	3447	664.650367353281	0
7	3454	666.65312400833	0
7	3457	666.772526580772	0
7	3462	667.186933111909	0
7	3467	667.617382513751	0
7	3472	668.819514069488	0
7	3478	669.220123442346	0
7	3483	670.209115003807	0
7	3488	670.933612037476	0
7	3493	671.38041186763	0
7	3498	672.755520771248	0
7	3503	673.572460848497	0
7	3508	674.223292284723	0
7	3513	674.561660189103	0
7	3518	677.806141376568	0
7	3523	680.609273905914	0
7	3528	681.968893330676	0
7	3533	682.307264251693	0
7	3538	682.53376387432	0
7	3543	682.840585472503	0
7	3548	683.790400496937	0
7	3553	684.150668205877	0
7	3560	686.738267150402	0
7	3563	686.857669722844	0
7	3568	687.765925609849	0
7	3573	688.619374549679	0
7	3578	691.1022795976	0
7	3583	691.244766932549	0
7	3588	692.121305964789	0
7	3593	692.70051210414	0
7	3598	692.93573383588	0
7	3603	693.639404383888	0
7	3608	693.982436785581	0
7	3613	695.672392732618	0
7	3618	695.973837930511	0
7	3623	696.241181254566	0
7	3631	697.483532418513	0
7	3634	697.602934990955	0
7	3639	697.841008088851	0
7	3644	698.223521120614	0
7	3649	699.159851954502	0
7	3654	699.968482987978	0
7	3659	700.18438537656	0
7	3664	700.972068988402	0
7	3669	701.241383680757	0
7	3676	702.353279717425	0
7	3681	702.472682289867	0
7	3684	702.592084862309	0
7	3689	703.42099877984	0
7	3694	705.312683312396	0
7	3699	705.841434099277	0
7	3704	706.290796383344	0
7	3709	706.774422086258	0
7	3714	708.226570124312	0
7	3719	708.905409154477	0
7	3724	710.295539814084	0
7	3729	710.982308783345	0
7	3736	712.227283696348	0
7	3739	712.34668626879	0
7	3744	713.808724450643	0
7	3749	714.136594336453	0
7	3754	714.45817436748	0
7	3759	714.905083431332	0
7	3764	715.094389160126	0
7	3769	716.595905925929	0
7	3774	716.848263744843	0
7	3780	717.248873117701	0
7	3785	720.443099098409	0
7	3790	721.335409859143	0
7	3795	723.607777997165	0
7	3800	728.039086913374	0
7	3805	728.398291421513	0
7	3810	730.013992309499	0
7	3815	731.903074546142	0
7	3820	732.860097802066	0
7	3825	733.004497120575	0
7	3830	733.17837325329	0
7	3835	733.413647132321	0
7	3840	733.576532565126	0
7	3845	736.758476840292	0
7	3850	737.209151173562	0
7	3857	738.135171261811	0
7	3860	738.254573834253	0
7	3865	739.268609120476	0
7	3870	739.730192007426	0
7	3875	741.385296421573	0
7	3880	741.96839519616	0
7	3885	743.254927006845	0
7	3890	744.099122700475	0
7	3895	744.744072104086	0
7	3900	746.144571466301	0
7	3905	747.497499223963	0
7	3910	747.63492640561	0
7	3915	748.350521967715	0
7	3920	749.280004065804	0
7	3925	749.534678218784	0
7	3931	753.354004461594	0
7	3936	755.41856489769	0
7	3941	755.845876921046	0
7	3946	757.872735435882	0
7	3951	758.907764223188	0
7	3956	761.847391909591	0
7	3961	762.311733596878	0
7	3966	764.341409822374	0
7	3971	765.823048460717	0
7	3978	766.558562935833	0
7	3981	766.677965508275	0
7	3986	766.976374658093	0
7	3991	769.454824002421	0
7	3998	770.608429065407	0
7	4001	770.727831637849	0
7	4006	771.164702504307	0
7	4011	772.467295107827	0
7	4016	775.828126768293	0
7	4021	776.845498878928	0
7	4026	778.206487269011	0
7	4031	778.638546595147	0
7	4036	781.681331837927	0
7	4041	782.356202647156	0
7	4046	782.588789980011	0
7	4053	783.715239367369	0
7	4056	783.834641939811	0
7	4061	785.12171861855	0
7	4066	785.626434055979	0
7	4073	786.178921648401	0
7	4076	786.298324220843	0
7	4082	786.698933593701	0
7	4087	789.127822675056	0
7	4092	790.558285753236	0
7	4099	790.947412533016	0
7	4102	791.066815105458	0
7	4107	795.904973689394	0
7	4112	797.29997391117	0
7	4117	799.697259323417	0
7	4122	800.449406402035	0
7	4127	801.020218006157	0
7	4132	801.43577462684	0
7	4137	804.669790661299	0
7	4142	805.615629853701	0
7	4149	805.935091779275	0
7	4152	806.054494351717	0
7	4157	807.263222806558	0
7	4162	807.455503130739	0
7	4167	808.521222566115	0
7	4172	809.286305940827	0
7	4177	810.09215154214	0
7	4182	810.543157982563	0
7	4189	810.819627176819	0
7	4192	810.939029749261	0
7	4197	811.797308687917	0
7	4202	812.47374002435	0
7	4207	813.391006375266	0
7	4214	813.687968599669	0
7	4217	813.807371172111	0
7	4222	814.481237274868	0
7	4227	816.03625587344	0
7	4233	816.807847500812	0
7	4238	817.476698521063	0
7	4243	818.112525982969	0
7	4248	818.426948780434	0
7	4253	819.021120021793	0
7	4258	824.554086083799	0
7	4265	827.261029145916	0
7	4268	827.380431718358	0
7	4273	827.767392131935	0
7	4278	831.615704671703	0
7	4283	832.60676139916	0
7	4288	833.030936444335	0
7	4293	833.627708424378	0
7	4298	834.219833301696	0
7	4303	834.708830012614	0
7	4308	834.927817206527	0
7	4313	835.097131935056	0
7	4318	835.341879507673	0
7	4323	837.251378280817	0
7	4328	838.149396865127	0
7	4333	838.943323881338	0
7	4338	839.212353038781	0
7	4343	839.543665522174	0
7	4348	841.421447078747	0
7	4353	841.634726922059	0
7	4358	842.325596601106	0
7	4363	842.604364057352	0
7	4368	842.740085122885	0
7	4373	844.080819916612	0
7	4378	844.41201908167	0
7	4384	844.852436155213	0
7	4389	845.979772530464	0
7	4394	846.188570109694	0
7	4399	847.341819044266	0
7	4404	847.921321900405	0
7	4409	849.946323364071	0
7	4414	850.085233448211	0
7	4419	850.385745151869	0
7	4424	850.626742951141	0
7	4429	852.093119190577	0
7	4434	853.913192283799	0
7	4439	854.219869366786	0
7	4444	854.636557096947	0
7	4449	856.929374548464	0
7	4454	857.206310457794	0
7	4461	858.926409782404	0
7	4464	859.045812354846	0
7	4469	862.039379089262	0
7	4474	862.439254925352	0
7	4479	863.71691044354	0
7	4484	863.850024452615	0
7	4489	866.980167824207	0
7	4494	867.468887851656	0
7	4499	868.973125720154	0
7	4504	869.505464542745	0
7	4509	870.02113206845	0
7	4514	870.272298227699	0
7	4519	871.599301568378	0
7	4524	871.82256126143	0
7	4529	872.111370054111	0
7	4537	872.691291777979	0
7	4540	872.810694350421	0
7	4545	874.007074936122	0
7	4550	878.169203792129	0
7	4555	879.597363966736	0
7	4560	882.041587554584	0
7	4565	882.367857587843	0
7	4570	883.509702711998	0
7	4575	884.834111785844	0
7	4580	885.265677935437	0
7	4585	887.539383337742	0
7	4590	887.867918892359	0
7	4595	891.996297352612	0
7	4600	892.167425700462	0
7	4605	893.107083425693	0
7	4610	893.546311161461	0
7	4615	894.375475379771	0
7	4620	896.440320648752	0
7	4625	897.169949014221	0
7	4630	897.429263191328	0
7	4635	901.592970355998	0
7	4640	901.97816605092	0
7	4645	902.125646860301	0
7	4650	903.606559609967	0
7	4655	903.814664764555	0
7	4662	904.440698484079	0
7	4665	904.560101056521	0
7	4672	904.843143377747	0
7	4675	904.962545950189	0
7	4680	906.579657077614	0
7	4686	907.081797172798	0
7	4691	908.822160463347	0
7	4696	909.012849406703	0
7	4701	911.545714902227	0
7	4706	912.004505256291	0
7	4711	912.992651384547	0
7	4716	913.996277075706	0
7	4721	914.537367173995	0
7	4726	915.290038872046	0
7	4731	917.003130900478	0
7	4736	917.673642072685	0
7	4741	918.093736351599	0
7	4746	918.448467332825	0
7	4751	919.832183612738	0
7	4758	920.349232993667	0
7	4761	920.468635566109	0
7	4766	920.78913831864	0
7	4773	921.84152896362	0
7	4776	921.960931536062	0
7	4781	922.788750360631	0
7	4786	925.881196493418	0
7	4791	926.646093662039	0
7	4796	927.401669506424	0
7	4801	927.73784677639	0
7	4806	929.187138617208	0
7	4811	930.333105553737	0
7	4816	933.650489025843	0
7	4821	933.854374863666	0
7	4826	934.678065349071	0
7	4833	936.664520291658	0
7	4837	937.065129664516	0
7	4842	939.254151286615	0
7	4847	940.584559786419	0
7	4852	941.668132742706	0
7	4857	942.145175408736	0
7	4862	942.62731423293	0
7	4867	942.831551993925	0
7	4872	944.280258155719	0
7	4877	944.893812918838	0
7	4882	945.323041513589	0
7	4887	946.96166627664	0
7	4892	947.553838118059	0
7	4897	948.553350203833	0
7	4902	949.071380915839	0
7	4907	950.453702980903	0
7	4912	952.051045107581	0
7	4917	955.710155184021	0
7	4922	957.056645379052	0
7	4927	957.944243842805	0
7	4932	959.185034928328	0
7	4939	961.124654773818	0
7	4942	961.24405734626	0
7	4947	962.181648706003	0
7	4952	962.57019635613	0
7	4959	963.132037067999	0
7	4962	963.251439640441	0
7	4967	963.431864522836	0
7	4972	963.981535855961	0
7	4977	964.460860302628	0
7	4982	965.332104962926	0
7	4992	965.732714335784	0
7	4995	965.852116908226	0
7	4998	965.971519480668	0
7	5003	966.40792099343	0
7	5010	966.672718227246	0
7	5013	966.792120799688	0
7	5018	967.390794631227	0
7	5023	968.173886471252	0
7	5028	968.768637425841	0
7	5033	968.970101317248	0
7	5038	971.03987813102	0
7	5043	971.867211664491	0
7	5048	972.611028532885	0
7	5053	972.875912490722	0
7	5058	974.077484681133	0
7	5063	975.357305221048	0
7	5068	979.938653523533	0
7	5073	980.350204851584	0
7	5078	981.420743606502	0
7	5083	981.936815016703	0
7	5088	983.766522126279	0
7	5093	988.310978298874	0
7	5098	991.237427773828	0
7	5103	991.357101161375	0
7	5108	992.549891792053	0
7	5113	993.631052765038	0
7	5120	994.626525525049	0
7	5125	994.745928097491	0
7	5128	994.865330669933	0
7	5135	995.0699010902	0
7	5141	995.470510463058	0
7	5144	995.5899130355	0
7	5149	995.793044740584	0
7	5154	997.657647617381	0
7	5159	998.04125206929	0
8	11	2.596082024543	0.038721998118
8	26	6.800806568716	0.10968875499
8	51	9.984282309664	0.062216828595
8	155	35.510535437974	0.260138243671
8	157	35.629938010416	0.157841827441
8	182	38.567577117599	0.012466510549
8	197	41.898313780455	0.080842715394
8	212	44.22475256703	0.032290484947
8	464	113.012334141406	0.085761931156
8	489	116.037395162614	0.003183508735
8	519	119.766854938599	0.066574757775
8	544	123.492231858555	0.012317831774
8	574	130.291522260502	0.027920011736
8	608	136.677380700981	0.06525045118
8	610	136.796783273423	0.130073405304
8	645	141.145105093262	0.060532524589
8	650	141.264507665704	0.100525302597
8	700	148.530892966506	0.053908972587
8	823	171.45215665962	0.017774099345
8	826	171.571559232062	0.130595443956
8	932	191.915685055615	0.025232771592
8	942	192.191677705524	0.065504534565
8	947	192.311080277966	0.035602059586
8	1032	207.652000745257	0.063437131362
8	1108	225.916093676209	0.059158907569
8	1130	229.350587095067	0.048958791955
8	1133	229.469989667509	0.148525245142
8	1173	233.972439083794	0.052889106935
8	1203	237.554899371073	0.090277698283
8	1210	237.955508743931	0.184199502168
8	1214	238.074911316373	0.09262154639
8	1289	253.910061501273	0.015819733824
8	1390	275.378798418048	0.076269553762
8	1445	290.40692715526	0.070758811499
8	1505	303.564531170503	0.109856811072
8	1516	304.207385260058	0.04038764997
8	1521	304.3267878325	0.110351923198
8	1581	316.127304607321	0.094430028607
8	1667	328.048052370614	0.038860120863
8	1717	337.377784904937	0.009922567313
8	1742	339.967581690611	0.064695844903
8	1772	341.528886529873	0.06221210328
8	1814	352.78400836289	0.128139157712
8	1845	361.067031998686	0.092662494942
8	1848	361.186434571128	0.122051111545
8	1878	367.48282377525	0.047098678626
8	1953	376.570779940991	0.026887488313
8	1965	377.274629283066	0.274646898402
8	2034	394.335979740531	0.084660453459
8	2064	399.579308967427	0.046852081272
8	2074	401.656552265594	0.003397382563
8	2079	401.775954838036	0.024818825886
8	2210	428.156558907034	0.118699140925
8	2255	438.593620288146	0.060234198187
8	2260	438.713022860588	0.027969367775
8	2276	441.052166836628	0.019803315162
8	2311	453.317695946323	0.048786539728
8	2371	464.516896900831	0.068532453977
8	2452	483.118375636252	0.10229508715
8	2472	489.217363517244	0.059785446968
8	2497	492.029456531763	0.084944200587
8	2507	493.448460645631	0.090433673837
8	2537	504.645220966325	0.003657546402
8	2713	537.239673010576	0.111818508324
8	2720	537.640282383434	0.04105518594
8	2729	538.378188103747	0.031536211041
8	2764	546.213770425135	0.031160908081
8	2779	547.852575092793	0.025722141278
8	2784	547.971977665235	0.062301233019
8	2890	572.085317238107	0.075056827907
8	2895	572.204719810549	0.009877969349
8	2925	580.319129159966	0.114518666418
8	2935	581.406296503857	0.084954203934
8	2990	589.032582485584	0.065153008441
8	3017	594.760439442251	0.057457557062
8	3024	595.161048815109	0.418519786695
8	3026	595.280451387551	0.437089691933
8	3061	601.880831181661	0.116042811666
8	3066	602.000233754103	0.087579147596
8	3126	611.736159716354	0.117327989438
8	3141	613.97756713088	0.081850134121
8	3158	617.924187909112	0.062109900153
8	3163	618.043590481554	0.15990101712
8	3166	618.162993053996	0.143464069643
8	3217	625.367439832843	0.043011858058
8	3257	631.043236475177	0.103436441567
8	3282	638.107641972001	0.087792724323
8	3297	639.420848261726	0.004498217033
8	3328	644.729662680636	0.025286893579
8	3453	666.65312400833	0.051274666731
8	3475	669.100720869904	0.28033061234
8	3559	686.738267150402	0.04756766931
8	3630	697.483532418513	0.018737858143
8	3675	702.353279717425	0.014523189958
8	3680	702.472682289867	0.114881339861
8	3735	712.227283696348	0.095239464656
8	3777	717.129470545259	0.098187184946
8	3856	738.135171261811	0.048820848579
8	3977	766.558562935833	0.044178417271
8	3997	770.608429065407	0.052445165143
8	4052	783.715239367369	0.026180839713
8	4072	786.178921648401	0.109612180076
8	4079	786.579531021259	0.069571514873
8	4098	790.947412533016	0.046678131647
8	4148	805.935091779275	0.020020982698
8	4188	810.819627176819	0.105906983861
8	4213	813.687968599669	0.080602391182
8	4264	827.261029145916	0.03852845997
8	4460	858.926409782404	0.03914215315
8	4536	872.691291777979	0.117876111163
8	4661	904.440698484079	0.024995993014
8	4671	904.843143377747	0.051042802948
8	4757	920.349232993667	0.016104694446
8	4772	921.84152896362	0.025153235475
8	4834	936.945727092074	0.323542056693
8	4938	961.124654773818	0.055186931178
8	4958	963.132037067999	0.078868270545
8	4989	965.613311763342	0.172816799861
8	4991	965.732714335784	0.217452744061
8	4994	965.852116908226	0.275953173116
8	5009	966.672718227246	0.012620865453
8	5119	994.626525525049	0.003401263543
8	5124	994.745928097491	0.000630545668
8	5138	995.351107890616	0.340935637147
8	5140	995.470510463058	0.262128697682

