version 2
run General-106-20240201-11:04:18-40057
attr configname General
attr datetime 20240201-11:04:18
attr experiment General
attr inifile main.ini
attr iterationvars "$0=2.0, $1=3.5, $2=70"
attr iterationvarsf 2.0,3.5,70-
attr measurement "$0=2.0, $1=3.5, $2=70"
attr network Rete
attr processid 40057
attr repetition 6
attr replication #6
attr resultdir results
attr runnumber 106
attr seedset 106
param Rete.lambda 2.0
param Rete.a 0.3s
param Rete.b 3.5s
param Rete.c 0.1s
param Rete.d 0.3s
param Rete.mu 3.0
param Rete.source2.interArrivalTime exponential(1s/lambda)
param Rete.source2.jobServiceTime exponential(1s/mu)
param Rete.source2.deadline uniform(a,b)
param Rete.server2.j 70
param Rete.server2.V uniform(c,d)

vector 0 Rete.passiveQueue queueLength:vector ETV
attr interpolationmode sample-hold
attr title "queue length, vector"
vector 1 Rete.passiveQueue queueingTime:vector ETV
attr interpolationmode none
attr title "queueing time at dequeue, vector"
attr unit s
vector 2 Rete.sink lifeTime:vector ETV
attr interpolationmode none
attr title "lifetime of arrived jobs, vector"
attr unit s
vector 3 Rete.sink totalQueueingTime:vector ETV
attr interpolationmode none
attr title "the total time spent in queues by arrived jobs, vector"
attr unit s
vector 4 Rete.sink queuesVisited:vector ETV
attr interpolationmode none
attr title "the total number of queues visited by arrived jobs, vector"
vector 5 Rete.sink totalServiceTime:vector ETV
attr interpolationmode none
attr title "the total time spent  by arrived jobs, vector"
attr unit s
vector 6 Rete.sink totalDelayTime:vector ETV
attr interpolationmode none
attr title "the total time spent in delay nodes by arrived jobs, vector"
attr unit s
vector 7 Rete.sink delaysVisited:vector ETV
attr interpolationmode none
attr title "the total number of delays visited by arrived jobs, vector"
vector 8 Rete.sink generation:vector ETV
attr interpolationmode none
attr title "the generation of the arrived jobs, vector"
0	0	0	0
0	5	0.302824078757	1
0	7	0.648658764719	2
0	8	1.032901831922	1
0	12	1.119743594705	2
0	14	1.186031891282	3
0	15	2.061502821605	2
0	19	2.141505515068	3
0	21	3.003453105898	4
0	22	3.090103811288	3
0	24	3.090103811288	2
0	25	3.090103811288	1
0	28	3.674707089296	2
0	29	4.118704800971	1
0	32	5.147305790654	0
0	46	8.4020776721	1
0	48	9.376150556317	2
0	49	9.424110704327	1
0	53	9.915343901206	2
0	54	10.45271169401	1
0	58	10.88227218281	2
0	60	10.981469886145	3
0	61	11.481312683693	2
0	63	11.481312683693	1
0	66	11.962835418935	2
0	67	12.509913673376	1
0	69	12.509913673376	0
0	72	12.522819159382	1
0	74	12.739966706163	2
0	76	13.412895677616	3
0	78	13.532044439508	4
0	79	13.538514663059	3
0	83	13.776126420603	4
0	85	14.534201256247	5
0	86	14.567115652742	4
0	88	14.567115652742	3
0	91	14.634446282293	4
0	92	15.595716642425	3
0	94	15.595716642425	2
0	95	15.595716642425	1
0	98	15.78280369392	2
0	99	16.624317632108	1
0	101	16.624317632108	0
0	104	16.677022984149	1
0	106	16.701481388636	2
0	108	17.265030074062	3
0	110	17.338959624883	4
0	112	17.419588237962	5
0	114	17.516581191242	6
0	116	17.545168348803	7
0	118	17.563888200338	8
0	119	17.652918621791	7
0	122	18.681519611474	6
0	124	18.681519611474	5
0	127	18.777321929368	6
0	129	19.134500023	7
0	131	19.347467574008	8
0	132	19.710120601157	7
0	134	19.710120601157	6
0	135	19.710120601157	5
0	136	19.710120601157	4
0	137	19.710120601157	3
0	138	19.710120601157	2
0	141	20.075996916104	3
0	142	20.73872159084	2
0	144	20.73872159084	1
0	146	21.767322580523	0
0	153	22.241629549087	1
0	155	22.705527414672	2
0	157	22.823144183709	3
0	158	22.938690154801	2
0	162	23.225220932202	3
0	164	23.496593351536	4
0	166	23.837063779718	5
0	167	23.967291144484	4
0	171	24.252130523779	5
0	172	24.995892134167	4
0	174	24.995892134167	3
0	175	24.995892134167	2
0	176	24.995892134167	1
0	179	25.418561940363	2
0	181	25.666953018924	3
0	183	25.830408833715	4
0	184	26.02449312385	3
0	186	26.02449312385	2
0	189	26.190629669623	3
0	191	26.432094050227	4
0	193	27.027701377892	5
0	194	27.053094113533	4
0	197	28.081695103216	3
0	199	28.081695103216	2
0	200	28.081695103216	1
0	201	28.081695103216	0
0	214	32.627492100326	1
0	216	33.095064108083	2
0	218	33.17924630423	3
0	219	33.49939377355	2
0	223	34.035942481529	3
0	225	34.127517007346	4
0	227	34.247154042057	5
0	229	34.466455608952	6
0	230	34.527994763233	5
0	234	34.634025400949	6
0	236	35.095511714099	7
0	238	35.386319916638	8
0	239	35.556595752916	7
0	241	35.556595752916	6
0	242	35.556595752916	5
0	245	35.931085493783	6
0	247	36.161583254016	7
0	249	36.350838856853	8
0	251	36.401278652815	9
0	252	36.585196742599	8
0	254	36.585196742599	7
0	255	36.585196742599	6
0	256	36.585196742599	5
0	259	37.144921068518	6
0	261	37.300208309149	7
0	263	37.445767391722	8
0	265	37.566420088824	9
0	266	37.613797732282	8
0	268	37.613797732282	7
0	269	37.613797732282	6
0	272	37.851177051174	7
0	273	38.642398721965	6
0	275	38.642398721965	5
0	276	38.642398721965	4
0	277	38.642398721965	3
0	280	38.692012261019	4
0	282	39.356847012258	5
0	283	39.670999711648	4
0	285	39.670999711648	3
0	286	39.670999711648	2
0	287	39.670999711648	1
0	290	40.670036653542	2
0	291	40.699600701331	1
0	295	40.89783573715	2
0	297	41.213065380655	3
0	299	41.357771549133	4
0	301	41.376204863267	5
0	303	41.449601795224	6
0	304	41.728201691014	5
0	308	41.95301349219	6
0	310	42.683528821972	7
0	311	42.756802680697	6
0	313	42.756802680697	5
0	314	42.756802680697	4
0	317	43.546409212531	5
0	318	43.78540367038	4
0	320	43.78540367038	3
0	321	43.78540367038	2
0	322	43.78540367038	1
0	324	44.814004660063	0
0	328	44.950394196767	1
0	330	45.111843528486	2
0	332	45.169982770739	3
0	334	45.542182775051	4
0	336	45.626850879374	5
0	338	45.726851878075	6
0	339	45.842605649746	5
0	343	46.677523025199	6
0	344	46.871206639429	5
0	346	46.871206639429	4
0	347	46.871206639429	3
0	350	46.905953359798	4
0	352	46.997130300628	5
0	354	47.36384298126	6
0	356	47.436517122859	7
0	358	47.889765401956	8
0	359	47.899807629112	7
0	361	47.899807629112	6
0	362	47.899807629112	5
0	365	48.088254834848	6
0	366	48.928408618795	5
0	368	48.928408618795	4
0	369	48.928408618795	3
0	370	48.928408618795	2
0	373	48.962012535718	3
0	374	49.957009608478	2
0	376	49.957009608478	1
0	377	49.957009608478	0
0	380	50.517641912153	1
0	382	50.537707833098	2
0	384	50.738590937252	3
0	385	50.985610598161	2
0	389	51.242708807226	3
0	391	51.30374167846	4
0	392	52.014211587844	3
0	396	52.382926531677	4
0	398	53.037654348343	5
0	399	53.042812577527	4
0	401	53.042812577527	3
0	402	53.042812577527	2
0	403	53.042812577527	1
0	405	54.07141356721	0
0	409	54.350082113453	1
0	411	55.017502573739	2
0	412	55.100014556893	1
0	416	55.395192038356	2
0	418	55.637029366854	3
0	419	56.128615546576	2
0	423	56.352546460318	3
0	424	57.157216536259	2
0	426	57.157216536259	1
0	427	57.157216536259	0
0	430	57.797992177083	1
0	431	58.185817525942	0
0	435	58.968196123785	1
0	437	59.141354621278	2
0	439	59.171315609377	3
0	440	59.214418515625	2
0	444	59.972827601059	3
0	445	60.243019505308	2
0	449	60.268963252055	3
0	451	60.533402151249	4
0	453	60.919061781019	5
0	455	61.030104782116	6
0	457	61.159904048493	7
0	459	61.246465490567	8
0	460	61.271620494991	7
0	462	61.271620494991	6
0	465	61.666922583642	7
0	467	61.680216622489	8
0	469	61.795023071489	9
0	471	61.900458371871	10
0	472	62.300221484674	9
0	474	62.300221484674	8
0	475	62.300221484674	7
0	478	62.476828860867	8
0	480	62.829814932834	9
0	482	62.948517429671	10
0	484	63.11108667783	11
0	485	63.328822474357	10
0	487	63.328822474357	9
0	488	63.328822474357	8
0	489	63.328822474357	7
0	490	63.328822474357	6
0	491	63.328822474357	5
0	492	63.328822474357	4
0	495	63.393300246009	5
0	497	64.039855839009	6
0	498	64.35742346404	5
0	500	64.35742346404	4
0	501	64.35742346404	3
0	504	64.436711332646	4
0	506	64.71783693138	5
0	508	64.978366518022	6
0	510	65.077913011076	7
0	511	65.386024453723	6
0	513	65.386024453723	5
0	514	65.386024453723	4
0	517	65.488627553372	5
0	519	66.193704546053	6
0	521	66.33124477055	7
0	522	66.414625443406	6
0	524	66.414625443406	5
0	525	66.414625443406	4
0	527	67.443226433089	3
0	529	67.443226433089	2
0	530	67.443226433089	1
0	533	67.483708342984	2
0	535	67.581988180107	3
0	537	68.014889782495	4
0	539	68.258428783625	5
0	540	68.471827422772	4
0	542	68.471827422772	3
0	545	69.49075264162	4
0	546	69.500428412455	3
0	548	69.500428412455	2
0	551	69.534615040844	3
0	553	69.84387826937	4
0	554	70.529029402138	3
0	556	70.529029402138	2
0	559	70.535013594677	3
0	561	70.839323388739	4
0	563	71.0187206964	5
0	565	71.029214602637	6
0	567	71.123859475351	7
0	569	71.397841467885	8
0	570	71.557630391821	7
0	572	71.557630391821	6
0	573	71.557630391821	5
0	576	72.162516330822	6
0	577	72.586231381504	5
0	579	72.586231381504	4
0	580	72.586231381504	3
0	581	72.586231381504	2
0	583	73.614832371187	1
0	585	73.614832371187	0
0	588	73.939287792161	1
0	590	74.52398843393	2
0	592	74.53533624336	3
0	593	74.64343336087	2
0	597	74.670237457504	3
0	599	74.740314500707	4
0	601	74.831447463601	5
0	603	75.037844365537	6
0	605	75.10673339699	7
0	607	75.270562334441	8
0	609	75.424573325146	9
0	611	75.657520653703	10
0	614	75.867288194786	9
0	616	76.895889184469	8
0	618	76.895889184469	7
0	619	76.895889184469	6
0	620	76.895889184469	5
0	621	76.895889184469	4
0	622	76.895889184469	3
0	623	76.895889184469	2
0	624	76.895889184469	1
0	627	77.044843182191	2
0	629	77.154770159136	3
0	630	77.924490174152	2
0	632	77.924490174152	1
0	635	77.955371007956	2
0	637	78.076641669193	3
0	639	78.094674050103	4
0	640	78.953091163835	3
0	642	78.953091163835	2
0	645	79.401279548258	3
0	646	79.981692153518	2
0	648	79.981692153518	1
0	649	79.981692153518	0
0	657	81.426432758128	1
0	659	81.515435572537	2
0	661	81.669814528672	3
0	662	82.128207250297	2
0	666	82.483714769727	3
0	667	83.15680823998	2
0	669	83.15680823998	1
0	672	83.394460643622	2
0	674	83.538993446941	3
0	676	83.698322969716	4
0	678	83.983807993972	5
0	679	84.185409229663	4
0	681	84.185409229663	3
0	684	84.514960416183	4
0	686	84.923944089554	5
0	687	85.214010219346	4
0	689	85.214010219346	3
0	690	85.214010219346	2
0	693	85.449010826514	3
0	694	86.242611209029	2
0	696	86.242611209029	1
0	699	86.317000139827	2
0	700	87.271212198712	1
0	702	87.271212198712	0
0	705	87.946153031522	1
0	707	88.042847592976	2
0	708	88.299813188395	1
0	712	88.544026792406	2
0	713	89.328414178078	1
0	717	89.4237788528	2
0	719	90.020733429486	3
0	721	90.238445706052	4
0	723	90.289177447525	5
0	724	90.357015167761	4
0	726	90.357015167761	3
0	729	90.927278800449	4
0	731	90.954258320331	5
0	732	91.385616157444	4
0	736	91.707417336538	5
0	738	91.831752996646	6
0	739	92.414217147127	5
0	741	92.414217147127	4
0	742	92.414217147127	3
0	745	92.90922772228	4
0	747	93.038420584416	5
0	749	93.313210632912	6
0	750	93.44281813681	5
0	752	93.44281813681	4
0	753	93.44281813681	3
0	754	93.44281813681	2
0	756	94.471419126493	1
0	760	95.195604959414	2
0	761	95.500020116176	1
0	763	95.500020116176	0
0	771	97.067368908544	1
0	772	98.031490864152	0
0	776	98.069425059053	1
0	778	98.29918854382	2
0	779	99.060091853835	1
0	782	100.088692843518	0
0	789	100.80706283888	1
0	791	101.07459684007	2
0	792	101.645728939456	1
0	796	102.010941941562	2
0	798	102.282052323728	3
0	799	102.674329929139	2
0	801	102.674329929139	1
0	804	103.224557424063	2
0	805	103.702930918822	1
0	809	103.876852150339	2
0	811	104.323834886882	3
0	812	104.731531908505	2
0	814	104.731531908505	1
0	817	104.942452677041	2
0	818	105.760132898188	1
0	822	106.06120443566	2
0	824	106.305322691531	3
0	825	106.788733887871	2
0	827	106.788733887871	1
0	829	107.817334877554	0
0	836	108.415192235914	1
0	838	108.428838155492	2
0	840	108.652315178432	3
0	842	109.24141223666	4
0	843	109.423463571393	3
0	847	109.522961723785	4
0	849	109.844655157909	5
0	851	110.003463167943	6
0	852	110.452064561076	5
0	854	110.452064561076	4
0	855	110.452064561076	3
0	858	111.155707273368	4
0	860	111.185325893787	5
0	862	111.202855066141	6
0	864	111.332196106623	7
0	865	111.480665550759	6
0	867	111.480665550759	5
0	868	111.480665550759	4
0	871	111.772107876382	5
0	872	112.509266540442	4
0	876	113.431326267041	5
0	877	113.537867530125	4
0	879	113.537867530125	3
0	880	113.537867530125	2
0	881	113.537867530125	1
0	882	113.537867530125	0
0	890	114.919687264613	1
0	892	115.310777149869	2
0	893	115.798588427371	1
0	897	116.094278067078	2
0	899	116.32325779001	3
0	900	116.827189417054	2
0	902	116.827189417054	1
0	905	116.940423022665	2
0	906	117.855790406737	1
0	908	117.855790406737	0
0	911	118.175313053715	1
0	913	118.836014523553	2
0	914	118.88439139642	1
0	918	118.929591959572	2
0	920	119.675930583575	3
0	921	119.912992386103	2
0	924	120.941593375786	1
0	926	120.941593375786	0
0	929	121.086493617863	1
0	931	121.287565677929	2
0	932	121.970194365469	1
0	936	122.366957854214	2
0	937	122.998795355152	1
0	939	122.998795355152	0
0	942	123.906262479868	1
0	943	124.027396344835	0
0	947	124.730475205647	1
0	949	124.907170674416	2
0	950	125.055997334518	1
0	954	125.605162882896	2
0	956	125.674496238821	3
0	957	126.084598324201	2
0	961	126.087705314204	3
0	963	126.133316793986	4
0	965	126.146150765877	5
0	967	126.182062128184	6
0	969	126.366414352534	7
0	971	126.555360500043	8
0	973	126.582597761723	9
0	974	127.113199313884	8
0	976	127.113199313884	7
0	979	127.722497452197	8
0	980	128.141800303567	7
0	982	128.141800303567	6
0	983	128.141800303567	5
0	984	128.141800303567	4
0	985	128.141800303567	3
0	986	128.141800303567	2
0	987	128.141800303567	1
0	988	128.141800303567	0
0	991	128.242213963706	1
0	993	128.348566525296	2
0	995	128.733233038112	3
0	996	129.17040129325	2
0	1000	129.253258183604	3
0	1002	129.320044012056	4
0	1004	129.917976462104	5
0	1006	130.188392228525	6
0	1007	130.199002282933	5
0	1009	130.199002282933	4
0	1012	130.747339030024	5
0	1014	130.809459941239	6
0	1016	130.977016248062	7
0	1018	131.090333564759	8
0	1019	131.227603272616	7
0	1021	131.227603272616	6
0	1022	131.227603272616	5
0	1025	131.601990581763	6
0	1027	131.787801661026	7
0	1029	131.882987476614	8
0	1030	132.256204262299	7
0	1032	132.256204262299	6
0	1033	132.256204262299	5
0	1035	133.284805251982	4
0	1037	133.284805251982	3
0	1038	133.284805251982	2
0	1039	133.284805251982	1
0	1040	133.284805251982	0
0	1043	133.390064087543	1
0	1044	134.313406241665	0
0	1048	134.342828191309	1
0	1050	134.662397440779	2
0	1052	134.8908889001	3
0	1053	135.342007231348	2
0	1057	136.037897811922	3
0	1059	136.241234409101	4
0	1060	136.370608221031	3
0	1062	136.370608221031	2
0	1065	136.77171502952	3
0	1067	137.039014012981	4
0	1069	137.086645557961	5
0	1071	137.106743708134	6
0	1072	137.399209210714	5
0	1076	137.622668686223	6
0	1078	137.754719881823	7
0	1080	137.773513760299	8
0	1081	138.427810200397	7
0	1083	138.427810200397	6
0	1084	138.427810200397	5
0	1087	138.530506780274	6
0	1089	139.265071343071	7
0	1090	139.45641119008	6
0	1092	139.45641119008	5
0	1093	139.45641119008	4
0	1094	139.45641119008	3
0	1095	139.45641119008	2
0	1096	139.45641119008	1
0	1099	140.345499539878	2
0	1100	140.485012179763	1
0	1104	141.473724293765	2
0	1105	141.513613169446	1
0	1109	141.566245582762	2
0	1111	141.9177308796	3
0	1112	142.542214159129	2
0	1115	143.570815148812	1
0	1117	143.570815148812	0
0	1123	144.895514455434	1
0	1124	145.262703298074	0
0	1128	145.595307623107	1
0	1129	146.291304287757	0
0	1133	146.749565850812	1
0	1135	146.942272123566	2
0	1137	147.066095315368	3
0	1139	147.200249719556	4
0	1141	147.247744564129	5
0	1142	147.31990527744	4
0	1146	147.928976766587	5
0	1147	148.348506267123	4
0	1151	148.565018609438	5
0	1153	149.285067515795	6
0	1154	149.377107256806	5
0	1156	149.377107256806	4
0	1157	149.377107256806	3
0	1158	149.377107256806	2
0	1163	150.454484728853	3
0	1164	150.600962090722	2
0	1165	150.600962090722	1
0	1167	151.629563080405	0
0	1176	153.405690573451	1
0	1178	153.644287698013	2
0	1179	153.830898444602	1
0	1182	154.859499434285	0
0	1186	154.978774924492	1
0	1188	155.010431650569	2
0	1190	155.156057216938	3
0	1192	155.68286815423	4
0	1194	155.717333379326	5
0	1195	155.888100423968	4
0	1199	156.208624215416	5
0	1201	156.74713215965	6
0	1202	156.916701413651	5
0	1204	156.916701413651	4
0	1205	156.916701413651	3
0	1208	157.116364493654	4
0	1210	157.421018631403	5
0	1211	157.945302403334	4
0	1213	157.945302403334	3
0	1214	157.945302403334	2
0	1216	158.973903393017	1
0	1218	158.973903393017	0
0	1224	160.133551498423	1
0	1225	160.523147358066	0
0	1229	160.741512350972	1
0	1231	161.084213062561	2
0	1233	161.268361509748	3
0	1234	161.551748347749	2
0	1238	161.818113509638	3
0	1240	162.281725155828	4
0	1242	162.318265825452	5
0	1243	162.580349337432	4
0	1245	162.580349337432	3
0	1248	162.603055777118	4
0	1250	162.721943634486	5
0	1252	163.020739780992	6
0	1254	163.172456704529	7
0	1256	163.178014627876	8
0	1257	163.608950327115	7
0	1259	163.608950327115	6
0	1262	164.346686580338	7
0	1263	164.637551316798	6
0	1265	164.637551316798	5
0	1266	164.637551316798	4
0	1267	164.637551316798	3
0	1268	164.637551316798	2
0	1271	164.866790699789	3
0	1273	165.440874968491	4
0	1274	165.666152306481	3
0	1276	165.666152306481	2
0	1279	165.77900246728	3
0	1281	166.18889372906	4
0	1282	166.694753296164	3
0	1284	166.694753296164	2
0	1287	167.013694508258	3
0	1289	167.121585876219	4
0	1291	167.220128080433	5
0	1293	167.439209624456	6
0	1295	167.462655477525	7
0	1296	167.723354285847	6
0	1298	167.723354285847	5
0	1299	167.723354285847	4
0	1302	168.118640028204	5
0	1304	168.613183723788	6
0	1306	168.746037430874	7
0	1307	168.75195527553	6
0	1309	168.75195527553	5
0	1310	168.75195527553	4
0	1313	168.892847285326	5
0	1315	168.998501737137	6
0	1317	169.71514737664	7
0	1318	169.780556265213	6
0	1320	169.780556265213	5
0	1321	169.780556265213	4
0	1324	170.733707120397	5
0	1326	170.757726939055	6
0	1327	170.809157254896	5
0	1329	170.809157254896	4
0	1330	170.809157254896	3
0	1331	170.809157254896	2
0	1334	171.552954220523	3
0	1335	171.837758244579	2
0	1339	172.104120369599	3
0	1341	172.225074146461	4
0	1342	172.866359234262	3
0	1344	172.866359234262	2
0	1346	173.894960223945	1
0	1348	173.894960223945	0
0	1359	177.080321401113	1
0	1360	177.169358090179	0
0	1364	177.512768762528	1
0	1365	178.197959079862	0
0	1374	180.260247806658	1
0	1376	180.744394707759	2
0	1378	180.760741721333	3
0	1379	180.94082513534	2
0	1383	181.268310142404	3
0	1384	181.969426125023	2
0	1388	182.527421818485	3
0	1389	182.998027114706	2
0	1391	182.998027114706	1
0	1392	182.998027114706	0
0	1395	183.115162642392	1
0	1397	183.331469326081	2
0	1398	184.026628104389	1
0	1402	184.678040548665	2
0	1404	184.837766623583	3
0	1406	184.928344203819	4
0	1408	184.96455417941	5
0	1409	185.055229094072	4
0	1411	185.055229094072	3
0	1414	185.497590435658	4
0	1416	185.750070876212	5
0	1418	185.759257989528	6
0	1419	186.083830083755	5
0	1423	186.397950152665	6
0	1425	186.632152407305	7
0	1427	186.955267651296	8
0	1428	187.112431073438	7
0	1430	187.112431073438	6
0	1431	187.112431073438	5
0	1432	187.112431073438	4
0	1435	187.667448926948	5
0	1436	188.141032063121	4
0	1438	188.141032063121	3
0	1439	188.141032063121	2
0	1440	188.141032063121	1
0	1443	188.986240947215	2
0	1444	189.169633052804	1
0	1446	189.169633052804	0
0	1449	189.554619902858	1
0	1451	189.968679663741	2
0	1452	190.198234042487	1
0	1456	190.443683355646	2
0	1458	190.570434262954	3
0	1460	191.060698232859	4
0	1461	191.22683503217	3
0	1464	192.255436021853	2
0	1466	192.255436021853	1
0	1467	192.255436021853	0
0	1470	192.591280812799	1
0	1472	192.979865155716	2
0	1473	193.284037011536	1
0	1477	193.92756400807	2
0	1479	194.24500675908	3
0	1480	194.312638001219	2
0	1483	195.341238990902	1
0	1487	195.596272110367	2
0	1489	196.022021410409	3
0	1490	196.369839980585	2
0	1492	196.369839980585	1
0	1494	197.398440970268	0
0	1498	197.533894365874	1
0	1500	197.640650980297	2
0	1502	197.838210540685	3
0	1503	198.427041959951	2
0	1507	198.915209310079	3
0	1508	199.455642949634	2
0	1510	199.455642949634	1
0	1511	199.455642949634	0
0	1514	199.533417006429	1
0	1516	199.731054229461	2
0	1518	200.47321888922	3
0	1519	200.484243939317	2
0	1523	200.515732301822	3
0	1525	200.562713531231	4
0	1527	200.619552773733	5
0	1529	200.833105289362	6
0	1531	201.316057947237	7
0	1532	201.512844929	6
0	1534	201.512844929	5
0	1537	201.562775006494	6
0	1538	202.541445918683	5
0	1540	202.541445918683	4
0	1541	202.541445918683	3
0	1542	202.541445918683	2
0	1543	202.541445918683	1
0	1546	203.036037464145	2
0	1548	203.226431253788	3
0	1549	203.570046908366	2
0	1551	203.570046908366	1
0	1554	204.08592242102	2
0	1556	204.135234991666	3
0	1558	204.231925825041	4
0	1560	204.393172615219	5
0	1561	204.598647898049	4
0	1565	205.271130523833	5
0	1567	205.327535484333	6
0	1568	205.627248887732	5
0	1570	205.627248887732	4
0	1573	205.856683655518	5
0	1575	205.874645476	6
0	1577	206.056893065083	7
0	1579	206.468509494252	8
0	1580	206.655849877415	7
0	1582	206.655849877415	6
0	1583	206.655849877415	5
0	1586	206.962258658457	6
0	1588	207.264286521068	7
0	1589	207.684450867098	6
0	1591	207.684450867098	5
0	1592	207.684450867098	4
0	1593	207.684450867098	3
0	1594	207.684450867098	2
0	1597	208.059711714055	3
0	1598	208.713051856781	2
0	1600	208.713051856781	1
0	1603	209.131349838339	2
0	1605	209.255776464094	3
0	1606	209.741652846464	2
0	1608	209.741652846464	1
0	1611	209.76364445019	2
0	1613	209.782326734894	3
0	1615	210.207525086699	4
0	1616	210.770253836147	3
0	1618	210.770253836147	2
0	1621	210.961891225964	3
0	1622	211.79885482583	2
0	1624	211.79885482583	1
0	1625	211.79885482583	0
0	1628	211.815702433311	1
0	1630	212.02754937876	2
0	1632	212.184661149926	3
0	1633	212.827455815513	2
0	1637	212.931343834504	3
0	1638	213.856056805196	2
0	1640	213.856056805196	1
0	1641	213.856056805196	0
0	1644	214.593774217056	1
0	1645	214.884657794879	0
0	1654	216.758899346746	1
0	1655	217.037589284937	0
0	1664	218.384291487248	1
0	1666	218.557464175075	2
0	1668	219.070354330161	3
0	1669	219.099466787334	2
0	1673	219.594759768564	3
0	1674	220.128067777017	2
0	1676	220.128067777017	1
0	1679	220.189615328156	2
0	1681	220.500905194908	3
0	1683	220.896984344094	4
0	1684	221.1566687667	3
0	1686	221.1566687667	2
0	1689	221.58447138593	3
0	1691	221.695992672745	4
0	1692	222.185269756383	3
0	1694	222.185269756383	2
0	1697	222.274456761129	3
0	1699	222.536911517913	4
0	1700	223.213870746066	3
0	1702	223.213870746066	2
0	1703	223.213870746066	1
0	1706	223.313418053563	2
0	1708	223.350581212862	3
0	1710	223.396710750471	4
0	1712	223.436650653657	5
0	1714	224.0559489675	6
0	1716	224.116986191585	7
0	1717	224.242471735749	6
0	1719	224.242471735749	5
0	1724	225.439572410611	6
0	1725	225.466326569665	5
0	1726	225.466326569665	4
0	1727	225.466326569665	3
0	1728	225.466326569665	2
0	1731	225.848984181159	3
0	1733	226.107421785016	4
0	1734	226.494927559348	3
0	1736	226.494927559348	2
0	1739	226.93711857604	3
0	1741	227.424341219601	4
0	1742	227.523528549031	3
0	1744	227.523528549031	2
0	1747	227.834854058821	3
0	1749	227.838669141876	4
0	1751	227.883526115158	5
0	1753	227.903082530215	6
0	1755	228.146429827568	7
0	1757	228.210774519392	8
0	1759	228.40457119482	9
0	1760	228.552129538714	8
0	1762	228.552129538714	7
0	1765	228.753434837677	8
0	1767	229.078437330181	9
0	1769	229.575957826485	10
0	1770	229.580730528397	9
0	1772	229.580730528397	8
0	1773	229.580730528397	7
0	1774	229.580730528397	6
0	1775	229.580730528397	5
0	1778	229.955496020882	6
0	1780	230.01903569194	7
0	1781	230.60933151808	6
0	1783	230.60933151808	5
0	1784	230.60933151808	4
0	1785	230.60933151808	3
0	1786	230.60933151808	2
0	1789	231.145768922506	3
0	1790	231.637932507763	2
0	1792	231.637932507763	1
0	1793	231.637932507763	0
0	1796	231.9591428099	1
0	1798	232.13783050981	2
0	1799	232.666533497446	1
0	1803	233.256666715565	2
0	1805	233.475661721574	3
0	1806	233.695134487129	2
0	1808	233.695134487129	1
0	1811	234.342425683593	2
0	1813	234.571188916856	3
0	1814	234.723735476812	2
0	1818	234.768837168863	3
0	1820	235.006914718157	4
0	1821	235.752336466495	3
0	1824	236.780937456178	2
0	1826	236.780937456178	1
0	1827	236.780937456178	0
0	1838	238.211809163784	1
0	1840	238.318755293133	2
0	1842	238.754367725736	3
0	1844	239.094982912531	4
0	1845	239.23772316706	3
0	1849	239.515555988212	4
0	1851	240.244086625311	5
0	1852	240.266324156743	4
0	1854	240.266324156743	3
0	1855	240.266324156743	2
0	1858	240.304928073438	3
0	1859	241.294925146426	2
0	1861	241.294925146426	1
0	1863	242.323526136109	0
0	1870	243.305352287939	1
0	1871	243.737133403849	0
0	1875	243.8051168753	1
0	1877	244.083105654703	2
0	1879	244.104848877009	3
0	1881	244.389544822196	4
0	1882	244.765734393532	3
0	1886	245.69995763491	4
0	1888	245.740697099976	5
0	1889	245.794335383215	4
0	1891	245.794335383215	3
0	1892	245.794335383215	2
0	1895	245.833189566163	3
0	1897	245.945709165751	4
0	1899	246.180553390786	5
0	1901	246.296808825476	6
0	1903	246.32405246139	7
0	1905	246.558974096313	8
0	1906	246.822936372898	7
0	1910	247.239174448203	8
0	1912	247.570992654858	9
0	1913	247.851537362581	8
0	1915	247.851537362581	7
0	1916	247.851537362581	6
0	1917	247.851537362581	5
0	1918	247.851537362581	4
0	1919	247.851537362581	3
0	1920	247.851537362581	2
0	1923	248.757152681804	3
0	1924	248.880138352264	2
0	1926	248.880138352264	1
0	1929	249.296721431462	2
0	1931	249.352617776648	3
0	1933	249.64837216261	4
0	1934	249.908739341947	3
0	1938	250.263387488398	4
0	1940	250.544676752393	5
0	1942	250.899525324548	6
0	1943	250.93734033163	5
0	1945	250.93734033163	4
0	1946	250.93734033163	3
0	1949	251.08375510449	4
0	1951	251.368746060048	5
0	1953	251.679965316719	6
0	1955	251.840818231548	7
0	1956	251.965941321313	6
0	1958	251.965941321313	5
0	1961	252.416118031859	6
0	1962	252.994542310996	5
0	1964	252.994542310996	4
0	1965	252.994542310996	3
0	1966	252.994542310996	2
0	1969	253.343500284411	3
0	1970	254.023143300679	2
0	1972	254.023143300679	1
0	1973	254.023143300679	0
0	1976	254.697677120547	1
0	1977	255.051744290362	0
0	1981	255.645650162051	1
0	1983	255.86981616799	2
0	1985	256.021957350192	3
0	1986	256.080345280045	2
0	1990	256.167839114659	3
0	1992	256.563540620577	4
0	1993	257.108946269728	3
0	1997	257.17816395878	4
0	1999	257.305061888311	5
0	2001	257.51243417236	6
0	2002	258.137547259411	5
0	2004	258.137547259411	4
0	2005	258.137547259411	3
0	2006	258.137547259411	2
0	2009	259.155940324819	3
0	2010	259.166148249094	2
0	2012	259.166148249094	1
0	2013	259.166148249094	0
0	2016	259.640980053444	1
0	2018	259.721177373226	2
0	2019	260.194749238777	1
0	2023	260.552949743124	2
0	2025	260.677025500801	3
0	2027	260.918122037934	4
0	2029	260.920980834499	5
0	2030	261.22335022846	4
0	2032	261.22335022846	3
0	2035	261.379927081707	4
0	2036	262.251951218143	3
0	2038	262.251951218143	2
0	2041	263.26983568919	3
0	2042	263.280552207826	2
0	2044	263.280552207826	1
0	2045	263.280552207826	0
0	2048	263.35565717642	1
0	2050	263.64716679084	2
0	2051	264.309153197509	1
0	2055	264.319760547969	2
0	2057	265.187708931755	3
0	2058	265.337754187192	2
0	2060	265.337754187192	1
0	2063	265.972693120482	2
0	2064	266.366355176875	1
0	2068	266.800784612786	2
0	2069	267.394956166558	1
0	2073	268.37232041172	2
0	2074	268.423557156241	1
0	2076	268.423557156241	0
0	2079	268.81744256732	1
0	2081	269.315749184009	2
0	2082	269.452158145924	1
0	2086	269.688476315514	2
0	2088	270.049404591627	3
0	2090	270.343763517719	4
0	2092	270.382494432845	5
0	2093	270.480759135607	4
0	2097	270.952716426975	5
0	2098	271.50936012529	4
0	2100	271.50936012529	3
0	2103	272.08949719857	4
0	2105	272.341033815971	5
0	2106	272.537961114973	4
0	2108	272.537961114973	3
0	2109	272.537961114973	2
0	2110	272.537961114973	1
0	2113	273.098852036089	2
0	2114	273.566562104656	1
0	2118	273.768710101509	2
0	2120	274.02558433828	3
0	2122	274.374704919994	4
0	2123	274.595163094339	3
0	2125	274.595163094339	2
0	2128	274.639158047656	3
0	2130	274.879217990403	4
0	2132	274.891027761009	5
0	2134	275.024252521718	6
0	2135	275.623764084022	5
0	2137	275.623764084022	4
0	2140	275.647916485684	5
0	2141	276.652365073705	4
0	2143	276.652365073705	3
0	2144	276.652365073705	2
0	2145	276.652365073705	1
0	2146	276.652365073705	0
0	2149	276.670816669863	1
0	2151	276.889446866355	2
0	2153	276.902812186047	3
0	2155	276.961981020406	4
0	2157	277.48615492425	5
0	2159	277.561525149174	6
0	2160	277.680966063388	5
0	2164	278.451056111329	6
0	2166	278.699457169422	7
0	2167	278.709567053071	6
0	2169	278.709567053071	5
0	2170	278.709567053071	4
0	2171	278.709567053071	3
0	2174	278.941423920868	4
0	2176	279.055354151134	5
0	2177	279.738168042754	4
0	2179	279.738168042754	3
0	2182	280.315507129386	4
0	2184	280.410659665866	5
0	2185	280.766769032437	4
0	2187	280.766769032437	3
0	2188	280.766769032437	2
0	2189	280.766769032437	1
0	2192	280.80417987088	2
0	2194	280.931543060096	3
0	2196	281.440982338569	4
0	2198	281.464117993866	5
0	2200	281.759420764152	6
0	2201	281.79537002212	5
0	2205	282.040214685602	6
0	2206	282.823971011803	5
0	2208	282.823971011803	4
0	2209	282.823971011803	3
0	2212	283.028535886929	4
0	2214	283.097885778841	5
0	2216	283.581329748447	6
0	2217	283.852572001486	5
0	2219	283.852572001486	4
0	2220	283.852572001486	3
0	2221	283.852572001486	2
0	2223	284.881172991169	1
0	2225	284.881172991169	0
0	2228	284.979822477229	1
0	2230	285.057386671366	2
0	2232	285.348519134366	3
0	2234	285.590362298074	4
0	2236	285.732360482724	5
0	2237	285.909773980852	4
0	2241	286.866765907861	5
0	2242	286.938374970535	4
0	2244	286.938374970535	3
0	2245	286.938374970535	2
0	2248	287.631052640492	3
0	2249	287.966975960218	2
0	2251	287.966975960218	1
0	2254	287.983829180073	2
0	2256	287.986733453097	3
0	2258	288.635351276465	4
0	2260	288.706143711536	5
0	2262	288.839273241188	6
0	2263	288.995576949901	5
0	2267	289.084599359025	6
0	2269	289.269368591629	7
0	2271	289.343220803438	8
0	2273	289.774838594228	9
0	2274	290.024177939584	8
0	2276	290.024177939584	7
0	2277	290.024177939584	6
0	2280	290.250405671361	7
0	2281	291.052778929267	6
0	2283	291.052778929267	5
0	2284	291.052778929267	4
0	2285	291.052778929267	3
0	2286	291.052778929267	2
0	2287	291.052778929267	1
0	2290	291.622848118468	2
0	2291	292.08137991895	1
0	2293	292.08137991895	0
0	2296	292.171821509085	1
0	2298	292.624855145003	2
0	2300	292.683113464297	3
0	2302	293.092722643868	4
0	2303	293.109980908633	3
0	2307	293.278801874054	4
0	2309	293.363105232351	5
0	2311	293.407743219375	6
0	2313	293.868127984728	7
0	2314	294.138581898316	6
0	2316	294.138581898316	5
0	2319	294.420422232247	6
0	2320	295.167182887999	5
0	2322	295.167182887999	4
0	2323	295.167182887999	3
0	2324	295.167182887999	2
0	2325	295.167182887999	1
0	2328	295.245822177129	2
0	2330	295.494883394625	3
0	2332	295.541557630547	4
0	2334	296.027107323301	5
0	2336	296.120899288576	6
0	2337	296.195783877682	5
0	2339	296.195783877682	4
0	2342	296.291869164331	5
0	2343	297.224384867365	4
0	2345	297.224384867365	3
0	2346	297.224384867365	2
0	2349	297.547671546344	3
0	2352	298.448239701281	2
0	2353	298.448239701281	1
0	2354	298.448239701281	0
0	2357	299.015904856829	1
0	2359	299.049745903473	2
0	2360	299.476840690964	1
0	2364	300.027574889101	2
0	2366	300.232386072446	3
0	2367	300.505441680647	2
0	2370	301.53404267033	1
0	2372	301.53404267033	0
0	2375	301.718934877435	1
0	2377	302.25538475128	2
0	2379	302.27725435278	3
0	2380	302.562643660013	2
0	2384	303.512745995128	3
0	2385	303.591244649696	2
0	2389	303.613058761008	3
0	2391	303.639589001917	4
0	2393	303.716603380221	5
0	2395	304.324081672454	6
0	2396	304.619845639379	5
0	2398	304.619845639379	4
0	2401	304.641087806212	5
0	2402	305.648446629062	4
0	2404	305.648446629062	3
0	2405	305.648446629062	2
0	2406	305.648446629062	1
0	2409	305.852357956654	2
0	2411	306.323595014197	3
0	2413	306.403480681235	4
0	2414	306.677047618745	3
0	2416	306.677047618745	2
0	2419	307.282549145982	3
0	2421	307.296752576654	4
0	2422	307.705648608428	3
0	2426	308.237852127691	4
0	2427	308.734249598111	3
0	2429	308.734249598111	2
0	2432	308.924305357586	3
0	2434	308.984448471612	4
0	2436	309.695060002254	5
0	2437	309.762850587794	4
0	2439	309.762850587794	3
0	2440	309.762850587794	2
0	2443	310.125823553153	3
0	2445	310.132656732335	4
0	2447	310.463199264818	5
0	2448	310.791451577477	4
0	2450	310.791451577477	3
0	2452	311.82005256716	2
0	2454	311.82005256716	1
0	2455	311.82005256716	0
0	2458	311.848410119173	1
0	2460	312.379072212996	2
0	2462	312.732979809008	3
0	2463	312.848653556843	2
0	2467	313.265347208358	3
0	2468	313.877254546526	2
0	2470	313.877254546526	1
0	2473	313.940504122845	2
0	2474	314.905855536209	1
0	2476	314.905855536209	0
0	2479	315.705583211742	1
0	2480	315.934456525892	0
0	2484	316.157645234778	1
0	2486	316.318696718757	2
0	2488	316.724920680937	3
0	2490	316.895871002526	4
0	2491	316.963057515575	3
0	2495	317.158562919648	4
0	2497	317.495206330213	5
0	2499	317.781944086985	6
0	2500	317.991658505258	5
0	2502	317.991658505258	4
0	2505	318.806962478818	5
0	2506	319.020259494941	4
0	2508	319.020259494941	3
0	2509	319.020259494941	2
0	2510	319.020259494941	1
0	2513	319.164769293613	2
0	2515	319.544794576996	3
0	2517	319.763105646423	4
0	2519	319.792124242023	5
0	2521	319.824267413069	6
0	2522	320.048860484624	5
0	2525	321.077461474307	4
0	2527	321.077461474307	3
0	2528	321.077461474307	2
0	2531	321.350511148768	3
0	2533	321.607916670871	4
0	2535	321.742774709259	5
0	2536	322.10606246399	4
0	2538	322.10606246399	3
0	2539	322.10606246399	2
0	2542	322.795908486239	3
0	2543	323.134663453673	2
0	2545	323.134663453673	1
0	2548	323.673126307164	2
0	2550	324.061512789458	3
0	2551	324.163264443356	2
0	2555	324.507855672644	3
0	2556	325.191865433039	2
0	2558	325.191865433039	1
0	2561	325.226193605716	2
0	2563	325.448946200354	3
0	2565	325.863158612587	4
0	2566	326.220466422722	3
0	2568	326.220466422722	2
0	2571	326.318107566769	3
0	2573	326.336555689278	4
0	2574	327.249067412405	3
0	2576	327.249067412405	2
0	2579	327.444307335912	3
0	2581	328.092705734097	4
0	2582	328.277668402088	3
0	2584	328.277668402088	2
0	2585	328.277668402088	1
0	2588	328.801893597089	2
0	2589	329.306269391771	1
0	2593	330.210772322274	2
0	2594	330.334870381454	1
0	2596	330.334870381454	0
0	2599	330.815922059562	1
0	2601	330.824385629968	2
0	2603	330.853600369813	3
0	2604	331.363471371137	2
0	2608	331.8574782095	3
0	2610	331.984169912297	4
0	2611	332.39207236082	3
0	2613	332.39207236082	2
0	2614	332.39207236082	1
0	2616	333.420673350503	0
0	2620	333.806622076567	1
0	2622	334.419071175921	2
0	2623	334.449274340186	1
0	2626	335.477875329869	0
0	2635	337.277543192321	1
0	2637	338.013001272396	2
0	2638	338.09191142402	1
0	2642	338.847262133563	2
0	2643	339.120512413703	1
0	2647	339.340892428439	2
0	2649	339.590989545315	3
0	2651	339.859460431943	4
0	2652	340.149113403386	3
0	2656	340.627930439939	4
0	2657	341.177714393069	3
0	2659	341.177714393069	2
0	2660	341.177714393069	1
0	2662	342.206315382752	0
0	2669	342.849476465549	1
0	2670	343.281868298924	0
0	2674	343.435844911558	1
0	2676	343.843593770563	2
0	2678	344.098053889207	3
0	2679	344.310469288607	2
0	2683	344.750202401866	3
0	2685	344.896653664401	4
0	2687	345.240958943596	5
0	2688	345.33907027829	4
0	2690	345.33907027829	3
0	2693	346.188530064096	4
0	2694	346.367671267973	3
0	2696	346.367671267973	2
0	2699	346.944418245354	3
0	2701	347.329738309401	4
0	2702	347.396272257656	3
0	2704	347.396272257656	2
0	2707	347.414478702007	3
0	2709	347.905812705972	4
0	2711	348.031114148579	5
0	2713	348.296590221637	6
0	2715	348.391637346437	7
0	2716	348.424873247339	6
0	2720	348.728631668073	7
0	2721	349.453474237022	6
0	2723	349.453474237022	5
0	2724	349.453474237022	4
0	2725	349.453474237022	3
0	2728	349.764607741234	4
0	2730	350.199320591566	5
0	2731	350.482075226705	4
0	2733	350.482075226705	3
0	2734	350.482075226705	2
0	2735	350.482075226705	1
0	2738	350.633273965857	2
0	2740	350.889314079155	3
0	2742	350.988531407847	4
0	2743	351.510676216388	3
0	2747	352.122535558283	4
0	2749	352.382234398946	5
0	2750	352.539277206071	4
0	2752	352.539277206071	3
0	2753	352.539277206071	2
0	2754	352.539277206071	1
0	2757	353.414553858247	2
0	2759	353.48451299965	3
0	2760	353.567878195754	2
0	2764	354.472874329662	3
0	2765	354.596479185437	2
0	2769	355.015071183723	3
0	2771	355.116252245267	4
0	2773	355.299300680703	5
0	2774	355.62508017512	4
0	2776	355.62508017512	3
0	2779	355.97070676225	4
0	2781	356.306451282507	5
0	2782	356.653681164803	4
0	2784	356.653681164803	3
0	2785	356.653681164803	2
0	2788	356.716094496496	3
0	2790	356.913397576827	4
0	2792	356.96660747202	5
0	2794	357.480246774041	6
0	2795	357.682282154486	5
0	2797	357.682282154486	4
0	2800	357.684170980513	5
0	2802	357.722512780681	6
0	2804	357.990432724592	7
0	2806	358.074346739347	8
0	2808	358.316737390995	9
0	2810	358.375907116426	10
0	2811	358.710883144169	9
0	2813	358.710883144169	8
0	2814	358.710883144169	7
0	2815	358.710883144169	6
0	2817	359.739484133852	5
0	2819	359.739484133852	4
0	2820	359.739484133852	3
0	2821	359.739484133852	2
0	2822	359.739484133852	1
0	2825	359.842827040432	2
0	2827	359.883488424533	3
0	2829	360.155443226165	4
0	2830	360.768085123535	3
0	2832	360.768085123535	2
0	2835	360.877083013131	3
0	2837	360.879969442713	4
0	2839	361.275449489831	5
0	2841	361.648285938182	6
0	2843	361.698918411282	7
0	2844	361.796686113218	6
0	2846	361.796686113218	5
0	2847	361.796686113218	4
0	2849	362.825287102901	3
0	2851	362.825287102901	2
0	2852	362.825287102901	1
0	2855	363.343128982401	2
0	2856	363.853888092584	1
0	2858	363.853888092584	0
0	2861	363.855293279956	1
0	2863	364.150814609466	2
0	2865	364.196991221293	3
0	2866	364.882489082267	2
0	2870	365.398101531157	3
0	2872	365.784269462193	4
0	2873	365.91109007195	3
0	2875	365.91109007195	2
0	2876	365.91109007195	1
0	2879	365.974421849062	2
0	2881	366.039806069323	3
0	2883	366.909915392458	4
0	2884	366.939691061633	3
0	2888	367.019668544054	4
0	2890	367.029484455789	5
0	2892	367.26123143334	6
0	2894	367.276120251151	7
0	2896	367.380760426862	8
0	2898	367.671931754505	9
0	2900	367.773468204707	10
0	2901	367.968292051316	9
0	2903	367.968292051316	8
0	2904	367.968292051316	7
0	2907	368.072101112311	8
0	2909	368.595076818799	9
0	2911	368.736138908666	10
0	2912	368.996893040999	9
0	2914	368.996893040999	8
0	2915	368.996893040999	7
0	2916	368.996893040999	6
0	2917	368.996893040999	5
0	2918	368.996893040999	4
0	2921	369.230445243313	5
0	2923	369.345126753514	6
0	2925	369.739752850801	7
0	2927	369.959239869357	8
0	2928	370.025494030682	7
0	2930	370.025494030682	6
0	2931	370.025494030682	5
0	2934	370.058697493343	6
0	2936	370.78507337309	7
0	2938	370.787951778372	8
0	2941	371.249348864598	7
0	2942	371.249348864598	6
0	2943	371.249348864598	5
0	2944	371.249348864598	4
0	2945	371.249348864598	3
0	2948	371.392445888547	4
0	2950	372.034050720587	5
0	2952	372.180410656843	6
0	2953	372.277949854281	5
0	2955	372.277949854281	4
0	2958	372.529754413977	5
0	2960	372.7274878245	6
0	2962	372.790566205464	7
0	2964	372.946254347769	8
0	2966	373.140167434355	9
0	2967	373.306550843964	8
0	2969	373.306550843964	7
0	2970	373.306550843964	6
0	2973	374.17390694913	7
0	2974	374.335151833647	6
0	2976	374.335151833647	5
0	2977	374.335151833647	4
0	2978	374.335151833647	3
0	2979	374.335151833647	2
0	2982	374.420471918969	3
0	2984	374.998185965555	4
0	2985	375.36375282333	3
0	2987	375.36375282333	2
0	2990	375.915452064302	3
0	2992	376.247873709299	4
0	2994	376.282129943967	5
0	2995	376.392353813013	4
0	2997	376.392353813013	3
0	3000	376.739026624112	4
0	3002	376.91889803309	5
0	3004	377.136130108402	6
0	3006	377.375448293681	7
0	3007	377.420954802696	6
0	3009	377.420954802696	5
0	3012	377.874540376574	6
0	3013	378.449555792379	5
0	3015	378.449555792379	4
0	3016	378.449555792379	3
0	3017	378.449555792379	2
0	3020	378.929916911636	3
0	3021	379.478156782062	2
0	3023	379.478156782062	1
0	3024	379.478156782062	0
0	3027	379.882309363337	1
0	3029	379.975757214581	2
0	3030	380.506757771745	1
0	3034	380.669605256527	2
0	3036	381.075460906034	3
0	3037	381.535358761428	2
0	3039	381.535358761428	1
0	3041	382.563959751111	0
0	3045	382.592023752434	1
0	3047	382.963557223306	2
0	3049	383.058078958601	3
0	3050	383.592560740794	2
0	3054	384.281595572242	3
0	3056	384.351924450356	4
0	3057	384.621161730477	3
0	3059	384.621161730477	2
0	3060	384.621161730477	1
0	3063	385.483659781975	2
0	3064	385.64976272016	1
0	3068	385.982220491493	2
0	3069	386.678363709843	1
0	3073	386.941419340752	2
0	3075	387.250958782952	3
0	3076	387.706964699526	2
0	3078	387.706964699526	1
0	3081	388.60158197032	2
0	3082	388.735565689209	1
0	3086	388.837457351096	2
0	3088	388.969465228566	3
0	3089	389.764166678892	2
0	3093	390.143937507412	3
0	3095	390.417255400912	4
0	3096	390.792767668575	3
0	3098	390.792767668575	2
0	3099	390.792767668575	1
0	3102	391.14144297544	2
0	3104	391.488332869785	3
0	3105	391.821368658258	2
0	3109	392.13677269583	3
0	3111	392.618806693502	4
0	3112	392.849969647941	3
0	3114	392.849969647941	2
0	3117	393.25816474585	3
0	3119	393.27982478038	4
0	3121	393.475471533215	5
0	3123	393.760144223835	6
0	3124	393.878570637624	5
0	3126	393.878570637624	4
0	3129	393.936516240757	5
0	3131	394.298535829648	6
0	3132	394.907171627307	5
0	3134	394.907171627307	4
0	3135	394.907171627307	3
0	3138	394.943900603724	4
0	3139	395.93577261699	3
0	3141	395.93577261699	2
0	3142	395.93577261699	1
0	3143	395.93577261699	0
0	3146	396.743400312196	1
0	3147	396.964373606673	0
0	3151	397.031662600062	1
0	3153	397.059116504392	2
0	3155	397.115127204178	3
0	3157	397.732311622178	4
0	3159	397.945510116815	5
0	3160	397.992974596356	4
0	3163	399.021575586039	3
0	3165	399.021575586039	2
0	3166	399.021575586039	1
0	3169	399.973480152651	2
0	3170	400.050176575722	1
0	3172	400.050176575722	0
0	3175	400.496204945749	1
0	3177	400.505348554328	2
0	3179	401.070138904651	3
0	3180	401.078777565405	2
0	3184	401.413886489163	3
0	3185	402.107378555088	2
0	3187	402.107378555088	1
0	3190	402.273575867746	2
0	3192	402.377873212431	3
0	3193	403.135979544771	2
0	3195	403.135979544771	1
0	3198	403.280877926668	2
0	3200	403.681459922716	3
0	3201	404.164580534454	2
0	3203	404.164580534454	1
0	3206	404.637183487679	2
0	3208	404.765286069175	3
0	3210	405.006835992408	4
0	3212	405.021368358102	5
0	3213	405.193181524137	4
0	3215	405.193181524137	3
0	3218	405.294292054682	4
0	3220	405.957383015521	5
0	3221	406.22178251382	4
0	3225	406.617205209106	5
0	3227	406.979531862996	6
0	3229	407.178480436308	7
0	3230	407.250383503503	6
0	3232	407.250383503503	5
0	3233	407.250383503503	4
0	3234	407.250383503503	3
0	3237	407.906297495153	4
0	3238	408.278984493186	3
0	3240	408.278984493186	2
0	3243	408.57325548976	3
0	3245	408.588432248194	4
0	3246	409.307585482869	3
0	3248	409.307585482869	2
0	3251	409.623028004242	3
0	3253	410.030801713938	4
0	3254	410.336186472552	3
0	3256	410.336186472552	2
0	3257	410.336186472552	1
0	3260	410.984067169506	2
0	3262	411.273226983697	3
0	3263	411.364787462235	2
0	3267	411.395282473851	3
0	3269	412.34662659885	4
0	3270	412.393388451918	3
0	3273	413.421989441601	2
0	3275	413.421989441601	1
0	3276	413.421989441601	0
0	3279	413.4483170232	1
0	3280	414.450590431284	0
0	3284	415.265769730861	1
0	3286	415.269796207781	2
0	3288	415.308185839318	3
0	3289	415.479191420967	2
0	3292	416.50779241065	1
0	3296	417.140921071229	2
0	3297	417.536393400333	1
0	3299	417.536393400333	0
0	3302	418.184613358518	1
0	3304	418.394535427172	2
0	3305	418.564994390016	1
0	3309	419.539531472405	2
0	3310	419.593595379699	1
0	3313	420.622196369382	0
0	3317	421.158123418844	1
0	3318	421.650797359065	0
0	3322	421.871005023874	1
0	3324	421.993932487147	2
0	3325	422.679398348748	1
0	3329	422.715920015153	2
0	3330	423.707999338431	1
0	3332	423.707999338431	0
0	3335	423.753566103016	1
0	3337	424.606767098791	2
0	3338	424.736600328114	1
0	3342	425.451467256358	2
0	3343	425.765201317797	1
0	3346	426.79380230748	0
0	3350	427.020592858171	1
0	3352	427.555171059591	2
0	3353	427.822403297163	1
0	3356	428.851004286846	0
0	3360	429.54599265604	1
0	3362	429.592308839458	2
0	3363	429.879605276529	1
0	3367	430.833987133818	2
0	3368	430.908206266212	1
0	3372	431.02554531515	2
0	3374	431.60353954658	3
0	3376	431.734634347254	4
0	3377	431.936807255895	3
0	3381	432.048719660525	4
0	3382	432.965408245578	3
0	3384	432.965408245578	2
0	3387	432.993845488703	3
0	3389	433.358570720977	4
0	3391	433.935498406253	5
0	3392	433.994009235261	4
0	3394	433.994009235261	3
0	3395	433.994009235261	2
0	3398	434.175194300083	3
0	3400	434.210821968555	4
0	3402	434.847828739391	5
0	3403	435.022610224944	4
0	3405	435.022610224944	3
0	3408	435.281398258305	4
0	3410	435.614176275275	5
0	3411	436.051211214627	4
0	3413	436.051211214627	3
0	3414	436.051211214627	2
0	3417	436.361232283594	3
0	3419	436.393745465997	4
0	3421	436.670681529141	5
0	3423	436.816810724063	6
0	3424	437.07981220431	5
0	3426	437.07981220431	4
0	3428	438.108413193993	3
0	3430	438.108413193993	2
0	3431	438.108413193993	1
0	3434	438.670432459845	2
0	3435	439.137014183676	1
0	3437	439.137014183676	0
0	3440	439.847498381079	1
0	3442	439.913932165894	2
0	3443	440.165615173359	1
0	3447	440.233645912094	2
0	3449	440.565164026652	3
0	3451	440.747623001297	4
0	3453	440.780581466085	5
0	3455	440.817229375648	6
0	3457	441.0542442339	7
0	3459	441.054388755652	8
0	3460	441.194216163042	7
0	3464	441.681207681968	8
0	3465	442.222817152725	7
0	3467	442.222817152725	6
0	3468	442.222817152725	5
0	3471	442.281270443516	6
0	3473	442.392097662755	7
0	3475	443.017028453664	8
0	3479	443.402782290246	9
0	3480	443.446671986641	8
0	3481	443.446671986641	7
0	3482	443.446671986641	6
0	3483	443.446671986641	5
0	3484	443.446671986641	4
0	3485	443.446671986641	3
0	3488	443.770768231856	4
0	3489	444.475272976324	3
0	3491	444.475272976324	2
0	3494	444.689210440452	3
0	3496	445.012952675896	4
0	3497	445.503873966007	3
0	3499	445.503873966007	2
0	3500	445.503873966007	1
0	3503	445.645612910623	2
0	3505	446.520668471852	3
0	3506	446.53247495569	2
0	3508	446.53247495569	1
0	3511	446.701137416117	2
0	3512	447.561075945373	1
0	3516	447.605512362293	2
0	3517	448.589676935056	1
0	3519	448.589676935056	0
0	3522	449.474718330378	1
0	3523	449.618277924739	0
0	3527	449.622420369241	1
0	3529	449.922365198932	2
0	3530	450.646878914422	1
0	3534	450.8420015543	2
0	3536	450.948711102476	3
0	3538	451.615675488302	4
0	3539	451.675479904105	3
0	3541	451.675479904105	2
0	3543	452.704080893788	1
0	3545	452.704080893788	0
0	3548	453.084458997604	1
0	3549	453.732681883471	0
0	3553	454.094089538533	1
0	3555	454.270528903611	2
0	3557	454.288882276621	3
0	3559	454.469105181799	4
0	3560	454.761282873154	3
0	3564	454.871819370469	4
0	3566	455.658362626373	5
0	3568	455.732158498507	6
0	3569	455.789883862837	5
0	3571	455.789883862837	4
0	3572	455.789883862837	3
0	3574	456.81848485252	2
0	3576	456.81848485252	1
0	3579	456.856925781635	2
0	3581	457.339020743028	3
0	3583	457.467573242896	4
0	3585	457.501091883125	5
0	3587	457.696444188058	6
0	3588	457.847085842203	5
0	3590	457.847085842203	4
0	3593	458.523990344465	5
0	3595	458.782263164917	6
0	3596	458.875686831886	5
0	3598	458.875686831886	4
0	3601	458.896783622985	5
0	3603	458.947246757493	6
0	3605	459.359259074472	7
0	3607	459.669929266008	8
0	3609	459.67206863974	9
0	3611	459.701960018564	10
0	3613	459.716019929282	11
0	3614	459.904287821569	10
0	3616	459.904287821569	9
0	3617	459.904287821569	8
0	3620	459.966648140395	9
0	3621	460.932888811252	8
0	3623	460.932888811252	7
0	3624	460.932888811252	6
0	3625	460.932888811252	5
0	3626	460.932888811252	4
0	3629	461.758286384747	5
0	3631	461.953442499062	6
0	3632	461.961489800935	5
0	3634	461.961489800935	4
0	3635	461.961489800935	3
0	3636	461.961489800935	2
0	3637	461.961489800935	1
0	3640	462.438188467773	2
0	3642	462.898139914347	3
0	3643	462.990090790618	2
0	3647	463.915366994303	3
0	3649	463.998209316084	4
0	3650	464.018691780301	3
0	3652	464.018691780301	2
0	3655	464.926758709282	3
0	3656	465.047292769984	2
0	3660	465.881838542337	3
0	3661	466.075893759667	2
0	3663	466.075893759667	1
0	3666	467.053910596823	2
0	3667	467.10449474935	1
0	3670	468.133095739033	0
0	3679	469.780135801779	1
0	3681	469.808772011451	2
0	3682	470.537438217724	1
0	3686	470.538993528832	2
0	3688	470.562124998582	3
0	3690	470.812185575559	4
0	3692	471.097638997204	5
0	3693	471.566039207407	4
0	3695	471.566039207407	3
0	3698	471.616335589118	4
0	3700	472.32168838834	5
0	3701	472.59464019709	4
0	3703	472.59464019709	3
0	3704	472.59464019709	2
0	3705	472.59464019709	1
0	3707	473.623241186773	0
0	3711	474.128346829816	1
0	3713	474.162649409509	2
0	3715	474.350255668215	3
0	3717	474.492949841878	4
0	3718	474.651842176456	3
0	3722	474.847924297718	4
0	3724	475.551057640851	5
0	3725	475.680443166139	4
0	3727	475.680443166139	3
0	3730	475.854069607795	4
0	3732	476.002987475939	5
0	3734	476.271526606234	6
0	3735	476.709044155822	5
0	3737	476.709044155822	4
0	3738	476.709044155822	3
0	3740	477.737645145505	2
0	3742	477.737645145505	1
0	3743	477.737645145505	0
0	3751	480.202493898275	1
0	3753	480.222566221564	2
0	3755	480.253707613727	3
0	3756	481.165837040935	2
0	3760	481.186084330683	3
0	3762	481.533467451258	4
0	3764	481.580689718338	5
0	3766	481.738304209741	6
0	3767	482.194438030618	5
0	3769	482.194438030618	4
0	3770	482.194438030618	3
0	3773	482.439309922338	4
0	3775	482.756989123031	5
0	3777	483.093511570933	6
0	3778	483.223039020301	5
0	3780	483.223039020301	4
0	3781	483.223039020301	3
0	3784	483.781952244395	4
0	3786	484.148741416825	5
0	3787	484.251640009984	4
0	3789	484.251640009984	3
0	3790	484.251640009984	2
0	3793	484.425308594041	3
0	3795	484.828185578089	4
0	3797	485.114985114283	5
0	3798	485.280240999667	4
0	3800	485.280240999667	3
0	3803	485.952381025371	4
0	3805	485.961338100636	5
0	3807	485.972399528421	6
0	3808	486.30884198935	5
0	3810	486.30884198935	4
0	3813	486.81062531069	5
0	3815	487.18432975256	6
0	3816	487.337442979033	5
0	3818	487.337442979033	4
0	3821	487.503790695806	5
0	3823	488.258308822679	6
0	3825	488.285737941727	7
0	3826	488.366043968716	6
0	3828	488.366043968716	5
0	3829	488.366043968716	4
0	3830	488.366043968716	3
0	3832	489.394644958399	2
0	3834	489.394644958399	1
0	3837	490.071462277273	2
0	3839	490.11231638026	3
0	3841	490.178039541958	4
0	3843	490.244320630118	5
0	3845	490.394477187128	6
0	3846	490.423245948082	5
0	3848	490.423245948082	4
0	3851	490.64334212564	5
0	3853	490.710513463014	6
0	3854	491.451846937765	5
0	3858	491.660338802046	6
0	3860	492.191617772791	7
0	3862	492.342529532984	8
0	3863	492.480447927448	7
0	3865	492.480447927448	6
0	3866	492.480447927448	5
0	3867	492.480447927448	4
0	3868	492.480447927448	3
0	3869	492.480447927448	2
0	3872	492.750940273805	3
0	3874	492.869478995241	4
0	3875	493.509048917131	3
0	3879	493.979835789198	4
0	3880	494.537649906814	3
0	3882	494.537649906814	2
0	3883	494.537649906814	1
0	3884	494.537649906814	0
0	3887	494.940058289169	1
0	3889	495.323830448682	2
0	3890	495.566250896497	1
0	3893	496.59485188618	0
0	3897	497.245764779093	1
0	3899	497.378440985037	2
0	3900	497.623452875863	1
0	3904	498.248015638488	2
0	3906	498.631480326842	3
0	3907	498.652053865546	2
0	3911	498.697794939969	3
0	3913	499.456909962788	4
0	3914	499.680654855229	3
0	3918	499.899616271665	4
0	3920	500.505334231509	5
0	3921	500.709255844912	4
0	3923	500.709255844912	3
0	3924	500.709255844912	2
0	3927	500.864756719155	3
0	3929	501.44862784756	4
0	3930	501.737856834595	3
0	3932	501.737856834595	2
0	3935	501.964423141	3
0	3937	502.351000251325	4
0	3939	502.747546370183	5
0	3940	502.766457824278	4
0	3942	502.766457824278	3
0	3945	502.857398405149	4
0	3946	503.795058813961	3
0	3948	503.795058813961	2
0	3950	504.823659803644	1
0	3952	504.823659803644	0
0	3958	505.105802151211	1
0	3959	506.021786544805	0
0	3968	508.346971997893	1
0	3970	508.784952155502	2
0	3971	509.299872002406	1
0	3975	509.414438269844	2
0	3977	510.03405666427	3
0	3979	510.181424757514	4
0	3980	510.328472992089	3
0	3982	510.328472992089	2
0	3985	510.748686410185	3
0	3987	511.04502936973	4
0	3989	511.185331033467	5
0	3991	511.299488531413	6
0	3992	511.357073981772	5
0	3996	512.278983711428	6
0	3997	512.385674971455	5
0	3999	512.385674971455	4
0	4000	512.385674971455	3
0	4003	512.425177453274	4
0	4005	512.911640829123	5
0	4006	513.414275961138	4
0	4008	513.414275961138	3
0	4009	513.414275961138	2
0	4011	514.442876950821	1
0	4013	514.442876950821	0
0	4019	515.885400949294	1
0	4020	516.044546482029	0
0	4024	516.317639582607	1
0	4026	516.775327395281	2
0	4028	516.887596554796	3
0	4029	517.073147471712	2
0	4033	517.383313325893	3
0	4035	517.394628090783	4
0	4037	518.090558323153	5
0	4038	518.101748461395	4
0	4042	518.910776475506	5
0	4046	519.321329941601	6
0	4047	519.325603295311	5
0	4048	519.325603295311	4
0	4049	519.325603295311	3
0	4050	519.325603295311	2
0	4053	519.540082927633	3
0	4054	520.354204284994	2
0	4058	520.507898247025	3
0	4060	520.980994617613	4
0	4062	521.037347208973	5
0	4063	521.382805274677	4
0	4065	521.382805274677	3
0	4066	521.382805274677	2
0	4069	521.81823509193	3
0	4071	521.951336191331	4
0	4073	522.093421143516	5
0	4075	522.153701799418	6
0	4076	522.41140626436	5
0	4080	522.457805202158	6
0	4082	522.962279938901	7
0	4083	523.440007254043	6
0	4085	523.440007254043	5
0	4086	523.440007254043	4
0	4089	523.639218627543	5
0	4090	524.468608243726	4
0	4092	524.468608243726	3
0	4093	524.468608243726	2
0	4094	524.468608243726	1
0	4095	524.468608243726	0
0	4098	525.350448698417	1
0	4100	525.364716735261	2
0	4101	525.497209233409	1
0	4105	525.516071005437	2
0	4107	526.15154370084	3
0	4108	526.525810223092	2
0	4112	527.006942997817	3
0	4114	527.426616053194	4
0	4116	527.504404046074	5
0	4117	527.554411212775	4
0	4119	527.554411212775	3
0	4122	528.531017034291	4
0	4123	528.583012202458	3
0	4125	528.583012202458	2
0	4128	529.281813265417	3
0	4129	529.611613192141	2
0	4131	529.611613192141	1
0	4134	529.737626049688	2
0	4136	530.545467444179	3
0	4137	530.640214181824	2
0	4141	530.759184705355	3
0	4143	530.901169537137	4
0	4145	531.360774626245	5
0	4147	531.617683546225	6
0	4148	531.668815171507	5
0	4150	531.668815171507	4
0	4152	532.69741616119	3
0	4154	532.69741616119	2
0	4155	532.69741616119	1
0	4158	532.830912428837	2
0	4160	533.088188363943	3
0	4162	533.133971229886	4
0	4164	533.268141157543	5
0	4166	533.607823746934	6
0	4167	533.726017150873	5
0	4169	533.726017150873	4
0	4172	533.906946227984	5
0	4173	534.754618140556	4
0	4175	534.754618140556	3
0	4176	534.754618140556	2
0	4178	535.783219130239	1
0	4180	535.783219130239	0
0	4186	536.364436395239	1
0	4188	536.590038844284	2
0	4190	537.09128780905	3
0	4191	537.391422260187	2
0	4195	537.436076816156	3
0	4197	538.235331653237	4
0	4198	538.42002324987	3
0	4200	538.42002324987	2
0	4202	539.448624239553	1
0	4204	539.448624239553	0
0	4212	541.064461839251	1
0	4213	542.018661937997	0
0	4217	542.377586386095	1
0	4219	542.918906655695	2
0	4220	543.04726292768	1
0	4224	543.697805946948	2
0	4226	543.737576077003	3
0	4227	544.075863917363	2
0	4231	544.311267686322	3
0	4232	545.104464907046	2
0	4236	545.547441938423	3
0	4237	546.133065896729	2
0	4239	546.133065896729	1
0	4240	546.133065896729	0
0	4243	547.112077385589	1
0	4245	547.150714711144	2
0	4246	547.161666886412	1
0	4250	547.540581674745	2
0	4252	547.983969172608	3
0	4253	548.190267876095	2
0	4257	548.21084517939	3
0	4259	548.322866177494	4
0	4261	548.692068832559	5
0	4262	549.218868865778	4
0	4264	549.218868865778	3
0	4267	549.617140097798	4
0	4268	550.247469855461	3
0	4270	550.247469855461	2
0	4271	550.247469855461	1
0	4272	550.247469855461	0
0	4275	550.386305024653	1
0	4276	551.276070845144	0
0	4280	551.492444761983	1
0	4282	552.162360737066	2
0	4283	552.304671834827	1
0	4287	552.367334666147	2
0	4289	552.487799052136	3
0	4290	553.33327282451	2
0	4293	554.361873814193	1
0	4295	554.361873814193	0
0	4301	555.228100396737	1
0	4303	555.295650580406	2
0	4304	555.55106130171	1
0	4308	555.618844006364	2
0	4310	556.000958672457	3
0	4311	556.579662291393	2
0	4315	556.951799666507	3
0	4317	557.307073242637	4
0	4319	557.514020138011	5
0	4320	557.608263281076	4
0	4322	557.608263281076	3
0	4323	557.608263281076	2
0	4326	557.677448726808	3
0	4328	558.288975639022	4
0	4330	558.624067037143	5
0	4331	558.636864270759	4
0	4335	558.670204292904	5
0	4336	559.665465260442	4
0	4338	559.665465260442	3
0	4339	559.665465260442	2
0	4342	559.724778579262	3
0	4344	560.181004001377	4
0	4345	560.694066250125	3
0	4347	560.694066250125	2
0	4348	560.694066250125	1
0	4351	560.699920531911	2
0	4352	561.722667239808	1
0	4354	561.722667239808	0
0	4362	563.02231490733	1
0	4364	563.424353708494	2
0	4365	563.898628016018	1
0	4369	564.211268577417	2
0	4370	564.927229005701	1
0	4372	564.927229005701	0
0	4375	565.103291253654	1
0	4377	565.281534807104	2
0	4379	565.507653295187	3
0	4381	565.719074286333	4
0	4382	565.955829995384	3
0	4386	566.35839837006	4
0	4388	566.364238186621	5
0	4390	566.591887097641	6
0	4392	566.770953292896	7
0	4393	566.984430985067	6
0	4395	566.984430985067	5
0	4398	567.419891984515	6
0	4400	567.567105409256	7
0	4401	568.01303197475	6
0	4403	568.01303197475	5
0	4404	568.01303197475	4
0	4405	568.01303197475	3
0	4407	569.041632964433	2
0	4409	569.041632964433	1
0	4410	569.041632964433	0
0	4413	569.875858153051	1
0	4414	570.070233954116	0
0	4418	570.133098080007	1
0	4420	570.200403237811	2
0	4422	570.342619299306	3
0	4424	570.355560240929	4
0	4426	570.439481332361	5
0	4427	571.098834943799	4
0	4430	572.127435933482	3
0	4432	572.127435933482	2
0	4433	572.127435933482	1
0	4434	572.127435933482	0
0	4440	572.966326089995	1
0	4442	572.966656574233	2
0	4443	573.32914383264	1
0	4447	573.959758981268	2
0	4448	574.357744822323	1
0	4452	574.5567362711	2
0	4454	574.868503762728	3
0	4456	574.930872966867	4
0	4458	574.963420341562	5
0	4460	575.058169106833	6
0	4461	575.386345812006	5
0	4464	576.414946801689	4
0	4466	576.414946801689	3
0	4467	576.414946801689	2
0	4470	577.041702553598	3
0	4472	577.436626773007	4
0	4473	577.443547791372	3
0	4475	577.443547791372	2
0	4476	577.443547791372	1
0	4479	577.535090435074	2
0	4481	577.985034791483	3
0	4483	578.360767429311	4
0	4484	578.472148781055	3
0	4487	579.500749770738	2
0	4489	579.500749770738	1
0	4490	579.500749770738	0
0	4498	581.151021945178	1
0	4500	581.842358600176	2
0	4501	582.098406736172	1
0	4505	583.036963439162	2
0	4507	583.117202268825	3
0	4508	583.127007725855	2
0	4512	583.387564488341	3
0	4514	583.653614062684	4
0	4515	584.155608715538	3
0	4519	584.404338088379	4
0	4521	584.834579725922	5
0	4523	585.124786192388	6
0	4524	585.184209705221	5
0	4526	585.184209705221	4
0	4527	585.184209705221	3
0	4528	585.184209705221	2
0	4531	585.790462225482	3
0	4532	586.212810694904	2
0	4536	587.022413287073	3
0	4537	587.241411684587	2
0	4539	587.241411684587	1
0	4542	587.549834505607	2
0	4544	587.673706765587	3
0	4545	588.27001267427	2
0	4549	588.985024958335	3
0	4551	589.268264140941	4
0	4552	589.298613663953	3
0	4554	589.298613663953	2
0	4555	589.298613663953	1
0	4558	589.510377415596	2
0	4560	589.800433672846	3
0	4562	590.115285317998	4
0	4563	590.327214653636	3
0	4567	591.004658601669	4
0	4568	591.355815643319	3
0	4570	591.355815643319	2
0	4571	591.355815643319	1
0	4573	592.384416633002	0
0	4577	592.700116087493	1
0	4579	592.802465961391	2
0	4582	593.608271466918	1
0	4585	593.889951544529	2
0	4587	594.042901302239	3
0	4589	594.352421228763	4
0	4591	594.446495338127	5
0	4593	594.627121572352	6
0	4594	594.636872456601	5
0	4596	594.636872456601	4
0	4599	595.497058012014	5
0	4600	595.665473446284	4
0	4602	595.665473446284	3
0	4604	596.694074435967	2
0	4606	596.694074435967	1
0	4607	596.694074435967	0
0	4615	598.35515535016	1
0	4617	598.371288216684	2
0	4618	599.324908558764	1
0	4622	599.74607933433	2
0	4624	600.330722749514	3
0	4625	600.353509548447	2
0	4627	600.353509548447	1
0	4630	600.443515237993	2
0	4632	600.79485570899	3
0	4634	601.065275023881	4
0	4635	601.38211053813	3
0	4639	602.188866685168	4
0	4640	602.410711527813	3
0	4642	602.410711527813	2
0	4643	602.410711527813	1
0	4646	602.874682414269	2
0	4648	603.404944557335	3
0	4649	603.439312517496	2
0	4653	603.482201595282	3
0	4655	603.491733594504	4
0	4657	603.651926348966	5
0	4659	603.73054916704	6
0	4661	604.370964068565	7
0	4662	604.467913507179	6
0	4664	604.467913507179	5
0	4667	604.737739155837	6
0	4669	605.113931932257	7
0	4671	605.436167274405	8
0	4672	605.496514496862	7
0	4674	605.496514496862	6
0	4675	605.496514496862	5
0	4676	605.496514496862	4
0	4677	605.496514496862	3
0	4679	606.525115486545	2
0	4681	606.525115486545	1
0	4684	606.850586048305	2
0	4686	606.882554996761	3
0	4687	607.553716476228	2
0	4689	607.553716476228	1
0	4692	607.744432419605	2
0	4694	607.98104377204	3
0	4695	608.582317465911	2
0	4697	608.582317465911	1
0	4699	609.610918455594	0
0	4706	610.809940103836	1
0	4707	610.927442047957	0
0	4716	613.03982336176	1
0	4718	613.22675397525	2
0	4720	613.527592576951	3
0	4722	613.539358724999	4
0	4723	613.85085791258	3
0	4726	614.879458902263	2
0	4728	614.879458902263	1
0	4731	614.901560145035	2
0	4733	615.37697087777	3
0	4735	615.657166802898	4
0	4736	615.908059891946	3
0	4738	615.908059891946	2
0	4741	616.687661349488	3
0	4743	616.721719672911	4
0	4744	616.936660881629	3
0	4746	616.936660881629	2
0	4749	617.618309821221	3
0	4750	617.965261871312	2
0	4753	618.993862860995	1
0	4755	618.993862860995	0
0	4758	619.161218554155	1
0	4759	620.022463850678	0
0	4763	620.090314559813	1
0	4765	620.547652209256	2
0	4767	620.691566722142	3
0	4769	620.731389592002	4
0	4771	620.918177295801	5
0	4772	621.051064840361	4
0	4776	621.390076197101	5
0	4777	622.079665830044	4
0	4779	622.079665830044	3
0	4782	622.179563753663	4
0	4784	622.880053131537	5
0	4786	623.054889391954	6
0	4787	623.108266819727	5
0	4789	623.108266819727	4
0	4790	623.108266819727	3
0	4791	623.108266819727	2
0	4794	623.418278292048	3
0	4796	623.481059960037	4
0	4797	624.13686780941	3
0	4801	624.319905479941	4
0	4802	625.165468799093	3
0	4804	625.165468799093	2
0	4805	625.165468799093	1
0	4806	625.165468799093	0
0	4809	625.287416853924	1
0	4810	626.194069788776	0
0	4814	626.465148283326	1
0	4816	626.765245938107	2
0	4818	627.050066421577	3
0	4819	627.222670778459	2
0	4822	628.251271768142	1
0	4826	629.097802062181	2
0	4827	629.279872757825	1
0	4829	629.279872757825	0
0	4832	629.692687171279	1
0	4833	630.308473747508	0
0	4842	631.928313967684	1
0	4844	632.300030006039	2
0	4846	632.355005868158	3
0	4847	632.451582695832	2
0	4851	632.620311775627	3
0	4853	632.799529492698	4
0	4854	633.480183685515	3
0	4857	634.508784675198	2
0	4859	634.508784675198	1
0	4860	634.508784675198	0
0	4866	634.561815725609	1
0	4868	635.347777486882	2
0	4869	635.580119773787	1
0	4873	635.631350379174	2
0	4875	635.811135992702	3
0	4877	635.912869751208	4
0	4879	636.478463883917	5
0	4881	636.518345785399	6
0	4882	636.60872076347	5
0	4886	637.572892489639	6
0	4887	637.637321753153	5
0	4889	637.637321753153	4
0	4890	637.637321753153	3
0	4891	637.637321753153	2
0	4894	638.071019181456	3
0	4896	638.495856938158	4
0	4897	638.665922742836	3
0	4899	638.665922742836	2
0	4902	639.067518368918	3
0	4904	639.266715559594	4
0	4905	639.694523732519	3
0	4907	639.694523732519	2
0	4910	639.849725995361	3
0	4912	640.078374166669	4
0	4914	640.084400033092	5
0	4915	640.723124722202	4
0	4917	640.723124722202	3
0	4920	641.363308551568	4
0	4921	641.751725711885	3
0	4923	641.751725711885	2
0	4924	641.751725711885	1
0	4925	641.751725711885	0
0	4928	642.265805263858	1
0	4930	642.650784441124	2
0	4931	642.780326701568	1
0	4934	643.808927691251	0
0	4938	643.972028557101	1
0	4940	644.161330999017	2
0	4942	644.522357793139	3
0	4943	644.837528680934	2
0	4947	645.01611344995	3
0	4949	645.174630732301	4
0	4950	645.866129670617	3
0	4952	645.866129670617	2
0	4954	646.8947306603	1
0	4956	646.8947306603	0
0	4962	647.178656332582	1
0	4964	647.526131853773	2
0	4965	648.116401804608	1
0	4969	648.198487325209	2
0	4971	648.234771274179	3
0	4973	648.394703287491	4
0	4975	648.840932438896	5
0	4977	648.954166134506	6
0	4978	649.145002794291	5
0	4980	649.145002794291	4
0	4983	649.258237505596	5
0	4985	649.758589921677	6
0	4986	650.173603783974	5
0	4988	650.173603783974	4
0	4989	650.173603783974	3
0	4992	650.689699980151	4
0	4994	650.835191723133	5
0	4995	651.202204773657	4
0	4997	651.202204773657	3
0	4998	651.202204773657	2
0	5001	651.736131691791	3
0	5003	651.785164594617	4
0	5005	652.20584798675	5
0	5006	652.23080576334	4
0	5008	652.23080576334	3
0	5011	652.574144973345	4
0	5013	652.600090729996	5
0	5015	652.694313881947	6
0	5016	653.259406753023	5
0	5018	653.259406753023	4
0	5020	654.288007742706	3
0	5022	654.288007742706	2
0	5023	654.288007742706	1
0	5024	654.288007742706	0
0	5030	655.782549744785	1
0	5032	655.953935194345	2
0	5034	656.039540116302	3
0	5035	656.049850462327	2
0	5039	656.0838948443	3
0	5041	656.29054428802	4
0	5043	656.390698515247	5
0	5044	657.07845145201	4
0	5048	657.410860518022	5
0	5050	657.915840616604	6
0	5051	658.107052441693	5
0	5053	658.107052441693	4
0	5054	658.107052441693	3
0	5055	658.107052441693	2
0	5056	658.107052441693	1
0	5058	659.135653431376	0
0	5062	659.594294104265	1
0	5064	660.099158616063	2
0	5065	660.164254421059	1
0	5068	661.192855410742	0
0	5072	661.383376722753	1
0	5074	661.472374034246	2
0	5076	662.17624275834	3
0	5077	662.221456400425	2
0	5081	663.124035036909	3
0	5083	663.163564931145	4
0	5084	663.250057390108	3
0	5086	663.250057390108	2
0	5089	663.680340749148	3
0	5091	664.023856598793	4
0	5093	664.128327571995	5
0	5095	664.243235706085	6
0	5096	664.278658379791	5
0	5100	664.3633564656	6
0	5101	665.307259369474	5
0	5103	665.307259369474	4
0	5104	665.307259369474	3
0	5107	665.573487249733	4
0	5108	666.335860359157	3
0	5110	666.335860359157	2
0	5111	666.335860359157	1
0	5112	666.335860359157	0
0	5115	666.450456653199	1
0	5117	667.212727836334	2
0	5118	667.36446134884	1
0	5122	667.909450691717	2
0	5124	668.258516716352	3
0	5126	668.299657467314	4
0	5129	668.588316182756	3
0	5131	669.616917172439	2
0	5133	669.616917172439	1
0	5136	670.076582321765	2
0	5138	670.637484144781	3
0	5139	670.645518162122	2
0	5141	670.645518162122	1
0	5144	671.05680664284	2
0	5146	671.38749379552	3
0	5148	671.590583685773	4
0	5149	671.674119151805	3
0	5153	671.918974771516	4
0	5155	672.440735574634	5
0	5156	672.702720141488	4
0	5158	672.702720141488	3
0	5161	672.864795193491	4
0	5163	673.543950832034	5
0	5164	673.731321131171	4
0	5166	673.731321131171	3
0	5167	673.731321131171	2
0	5169	674.759922120854	1
0	5171	674.759922120854	0
0	5174	675.312398769387	1
0	5176	675.365248036419	2
0	5178	675.369943392481	3
0	5179	675.788523110537	2
0	5183	676.312425016698	3
0	5185	676.68358510754	4
0	5187	676.792154004007	5
0	5188	676.81712410022	4
0	5192	677.319797494051	5
0	5193	677.845725089903	4
0	5195	677.845725089903	3
0	5196	677.845725089903	2
0	5199	678.171150758796	3
0	5201	678.575700477626	4
0	5202	678.874326079586	3
0	5204	678.874326079586	2
0	5205	678.874326079586	1
0	5207	679.902927069269	0
0	5216	681.767369781573	1
0	5217	682.327688791117	0
0	5221	682.396137106543	1
0	5223	682.912418619932	2
0	5225	683.027089301239	3
0	5226	683.3562897808	2
0	5230	683.376070635814	3
0	5231	684.384890770483	2
0	5235	684.924911249308	3
0	5237	685.136268947768	4
0	5239	685.260955326063	5
0	5240	685.413491760166	4
0	5242	685.413491760166	3
0	5243	685.413491760166	2
0	5245	686.442092749849	1
0	5249	686.498867107453	2
0	5251	686.634412978346	3
0	5253	687.203972498331	4
0	5254	687.470693739532	3
0	5256	687.470693739532	2
0	5259	687.755594123569	3
0	5261	687.980992630679	4
0	5263	688.360194630122	5
0	5265	688.360363075375	6
0	5266	688.499294729215	5
0	5268	688.499294729215	4
0	5271	688.813103115195	5
0	5273	689.491838831742	6
0	5274	689.527895718898	5
0	5276	689.527895718898	4
0	5277	689.527895718898	3
0	5280	689.73106239091	4
0	5282	689.899883643722	5
0	5284	690.510315352657	6
0	5285	690.556496708581	5
0	5287	690.556496708581	4
0	5288	690.556496708581	3
0	5291	690.642309500349	4
0	5293	690.796249006557	5
0	5294	691.585097698264	4
0	5296	691.585097698264	3
0	5297	691.585097698264	2
0	5299	692.613698687947	1
0	5301	692.613698687947	0
0	5312	695.504524353036	1
0	5313	695.556083735122	0
0	5317	696.326284898429	1
0	5318	696.584684724805	0
0	5322	696.73796462004	1
0	5324	697.169898605227	2
0	5325	697.613285714488	1
0	5329	698.187516259382	2
0	5331	698.572645740163	3
0	5332	698.641886704171	2
0	5336	699.581070384189	3
0	5337	699.670487693854	2
0	5340	700.699088683537	1
0	5342	700.699088683537	0
0	5345	700.820877941844	1
0	5347	701.349427786224	2
0	5349	701.560546999145	3
0	5350	701.72768967322	2
0	5354	702.234199652309	3
0	5356	702.489665989894	4
0	5357	702.756290662903	3
0	5361	703.210472682913	4
0	5362	703.784891652586	3
0	5364	703.784891652586	2
0	5365	703.784891652586	1
0	5368	704.006838334975	2
0	5370	704.12313776241	3
0	5371	704.813492642269	2
0	5373	704.813492642269	1
0	5375	705.842093631952	0
0	5382	705.906438314614	1
0	5384	706.200221947159	2
0	5386	706.336478950576	3
0	5388	706.743973524845	4
0	5390	706.822967325597	5
0	5391	706.873622637094	4
0	5395	707.518564892825	5
0	5397	707.547431026163	6
0	5399	707.864571315586	7
0	5400	707.902223626777	6
0	5402	707.902223626777	5
0	5403	707.902223626777	4
0	5406	707.984438211845	5
0	5408	708.495110032124	6
0	5410	708.583368580586	7
0	5411	708.93082461646	6
0	5413	708.93082461646	5
0	5416	709.121081723804	6
0	5417	709.959425606143	5
0	5419	709.959425606143	4
0	5420	709.959425606143	3
0	5421	709.959425606143	2
0	5424	710.075736892971	3
0	5426	710.282853740645	4
0	5428	710.763943654384	5
0	5430	710.937410981255	6
0	5431	710.988026595826	5
0	5433	710.988026595826	4
0	5434	710.988026595826	3
0	5437	711.11995782659	4
0	5439	711.454642737471	5
0	5440	712.016627585509	4
0	5442	712.016627585509	3
0	5445	712.480494545106	4
0	5447	712.758802558226	5
0	5448	713.045228575192	4
0	5450	713.045228575192	3
0	5451	713.045228575192	2
0	5452	713.045228575192	1
0	5455	713.760129783447	2
0	5457	714.070355105658	3
0	5458	714.073829564875	2
0	5462	714.175477091021	3
0	5464	714.60203506828	4
0	5466	714.912429862497	5
0	5467	715.102430554558	4
0	5471	715.811390886993	5
0	5472	716.131031544241	4
0	5474	716.131031544241	3
0	5475	716.131031544241	2
0	5476	716.131031544241	1
0	5479	716.679876545092	2
0	5481	716.892514558683	3
0	5483	717.055538316657	4
0	5485	717.057584403776	5
0	5486	717.159632533924	4
0	5490	717.779158844251	5
0	5492	718.183302156304	6
0	5493	718.188233523607	5
0	5495	718.188233523607	4
0	5498	718.417637255257	5
0	5500	719.143561778569	6
0	5502	719.174336983646	7
0	5503	719.21683451329	6
0	5505	719.21683451329	5
0	5506	719.21683451329	4
0	5509	719.253701294976	5
0	5511	719.313481281085	6
0	5513	719.380180325487	7
0	5515	720.113041388382	8
0	5517	720.140454884162	9
0	5518	720.245435502973	8
0	5520	720.245435502973	7
0	5521	720.245435502973	6
0	5524	720.311214491556	7
0	5526	720.35097080687	8
0	5528	720.669701920257	9
0	5530	720.706261393774	10
0	5532	720.770060920372	11
0	5534	720.906886458504	12
0	5536	721.076152474925	13
0	5537	721.274036492656	12
0	5539	721.274036492656	11
0	5540	721.274036492656	10
0	5541	721.274036492656	9
0	5542	721.274036492656	8
0	5545	721.370651764448	9
0	5547	721.464951691372	10
0	5549	721.616708570203	11
0	5550	722.302637482339	10
0	5552	722.302637482339	9
0	5553	722.302637482339	8
0	5554	722.302637482339	7
0	5555	722.302637482339	6
0	5556	722.302637482339	5
0	5557	722.302637482339	4
0	5560	722.562259260941	5
0	5562	723.241311494874	6
0	5563	723.331238472022	5
0	5565	723.331238472022	4
0	5566	723.331238472022	3
0	5567	723.331238472022	2
0	5568	723.331238472022	1
0	5571	723.880937938025	2
0	5573	723.88651149438	3
0	5574	724.359839461705	2
0	5577	725.388440451388	1
0	5579	725.388440451388	0
0	5585	726.786498026947	1
0	5587	727.124264319412	2
0	5589	727.412738855232	3
0	5590	727.463007212531	2
0	5594	728.269316290949	3
0	5595	728.491608202214	2
0	5599	728.994679979783	3
0	5600	729.520209191897	2
0	5602	729.520209191897	1
0	5605	730.018615270255	2
0	5607	730.057745390774	3
0	5608	730.54881018158	2
0	5610	730.54881018158	1
0	5613	730.723670374135	2
0	5615	731.179291448581	3
0	5616	731.577411171263	2
0	5618	731.577411171263	1
0	5621	731.616510106386	2
0	5623	732.344266316665	3
0	5625	732.491277711458	4
0	5626	732.606012160946	3
0	5630	732.673799060614	4
0	5631	733.634613150629	3
0	5633	733.634613150629	2
0	5636	733.995802287855	3
0	5638	734.464744798501	4
0	5640	734.486233271819	5
0	5641	734.663214140312	4
0	5643	734.663214140312	3
0	5644	734.663214140312	2
0	5647	734.91315956935	3
0	5649	735.156584479188	4
0	5651	735.244941277434	5
0	5653	735.565268057766	6
0	5654	735.691815129995	5
0	5658	735.996868329506	6
0	5660	736.270125243092	7
0	5662	736.382775942932	8
0	5663	736.720416119678	7
0	5665	736.720416119678	6
0	5666	736.720416119678	5
0	5667	736.720416119678	4
0	5670	737.325862101317	5
0	5672	737.338901740169	6
0	5673	737.749017109361	5
0	5675	737.749017109361	4
0	5676	737.749017109361	3
0	5678	738.777618099044	2
0	5680	738.777618099044	1
0	5683	739.768125455885	2
0	5684	739.806219088727	1
0	5686	739.806219088727	0
0	5689	740.778007324482	1
0	5690	740.83482007841	0
0	5694	740.904570585898	1
0	5696	741.141422737955	2
0	5698	741.613547684624	3
0	5699	741.863421068093	2
0	5703	742.121770045116	3
0	5705	742.284510790624	4
0	5707	742.706703655764	5
0	5710	743.087275902009	4
0	5711	743.087275902009	3
0	5713	744.115876891692	2
0	5715	744.115876891692	1
0	5716	744.115876891692	0
0	5719	744.263966439889	1
0	5721	744.550680971702	2
0	5723	744.609574937125	3
0	5725	745.134616114949	4
0	5726	745.144477881375	3
0	5730	745.310083789446	4
0	5732	745.52790130918	5
0	5734	745.717398608604	6
0	5735	746.173078871058	5
0	5737	746.173078871058	4
0	5738	746.173078871058	3
0	5741	746.459118589331	4
0	5743	747.087730383962	5
0	5745	747.116530369738	6
0	5746	747.201679860741	5
0	5748	747.201679860741	4
0	5749	747.201679860741	3
0	5752	748.149462603004	4
0	5754	748.222297514993	5
0	5755	748.230280850424	4
0	5757	748.230280850424	3
0	5760	748.648548361059	4
0	5762	749.149490653765	5
0	5763	749.258881840107	4
0	5765	749.258881840107	3
0	5768	749.365306346258	4
0	5770	749.496394634442	5
0	5772	749.809461509222	6
0	5774	750.255935129554	7
0	5775	750.28748282979	6
0	5777	750.28748282979	5
0	5778	750.28748282979	4
0	5781	751.111674301141	5
0	5783	751.134387858305	6
0	5784	751.316083819473	5
0	5786	751.316083819473	4
0	5787	751.316083819473	3
0	5788	751.316083819473	2
0	5790	752.344684809156	1
0	5794	752.619319654452	2
0	5796	752.719917031369	3
0	5798	752.87356888371	4
0	5800	752.914658219106	5
0	5802	752.980702569876	6
0	5804	753.022530918898	7
0	5805	753.373285798839	6
0	5807	753.373285798839	5
0	5810	753.837349598378	6
0	5812	754.185176364066	7
0	5814	754.366644930199	8
0	5815	754.401886788522	7
0	5817	754.401886788522	6
0	5818	754.401886788522	5
0	5821	754.729453469542	6
0	5822	755.430487778205	5
0	5824	755.430487778205	4
0	5825	755.430487778205	3
0	5826	755.430487778205	2
0	5829	755.468816644715	3
0	5830	756.459088767888	2
0	5832	756.459088767888	1
0	5833	756.459088767888	0
0	5836	757.258031538703	1
0	5837	757.487689757571	0
0	5841	757.612463524548	1
0	5843	757.974049278647	2
0	5845	758.091599277279	3
0	5847	758.100235388726	4
0	5848	758.516290747254	3
0	5852	758.738543681613	4
0	5854	758.981267504135	5
0	5855	759.544891736937	4
0	5857	759.544891736937	3
0	5859	760.57349272662	2
0	5861	760.57349272662	1
0	5862	760.57349272662	0
0	5868	761.187048875919	1
0	5870	761.547293555726	2
0	5871	761.818893274231	1
0	5875	762.469072212289	2
0	5877	762.497082556954	3
0	5878	762.847494263914	2
0	5882	762.999928275323	3
0	5883	763.876095253597	2
0	5887	764.059053283717	3
0	5888	764.90469624328	2
0	5890	764.90469624328	1
0	5891	764.90469624328	0
0	5894	765.352657225215	1
0	5896	765.420386430234	2
0	5898	765.714177093074	3
0	5899	765.933297232963	2
0	5903	765.985282613877	3
0	5905	766.776231615202	4
0	5906	766.961898222646	3
0	5908	766.961898222646	2
0	5911	767.330348143829	3
0	5913	767.465883421305	4
0	5915	767.775608588415	5
0	5917	767.87357144081	6
0	5918	767.990499212329	5
0	5920	767.990499212329	4
0	5923	768.330016869152	5
0	5925	768.453086850647	6
0	5926	769.019100202012	5
0	5928	769.019100202012	4
0	5929	769.019100202012	3
0	5932	769.326063300914	4
0	5934	769.570709983049	5
0	5936	769.619472919145	6
0	5937	770.047701191695	5
0	5939	770.047701191695	4
0	5940	770.047701191695	3
0	5941	770.047701191695	2
0	5944	770.066115851862	3
0	5946	770.810675603552	4
0	5947	771.076302181378	3
0	5949	771.076302181378	2
0	5952	771.359325007208	3
0	5954	771.463385083908	4
0	5956	771.553325930389	5
0	5957	772.104903171061	4
0	5959	772.104903171061	3
0	5961	773.133504160744	2
0	5963	773.133504160744	1
0	5964	773.133504160744	0
0	5975	775.444916034411	1
0	5977	775.45629716901	2
0	5979	776.057813918544	3
0	5981	776.142595243128	4
0	5983	776.211201064556	5
0	5985	776.380772083194	6
0	5986	776.389881430557	5
0	5990	777.059934564668	6
0	5991	777.41848242024	5
0	5993	777.41848242024	4
0	5995	778.447083409923	3
0	5997	778.447083409923	2
0	5998	778.447083409923	1
0	5999	778.447083409923	0
0	6002	779.119134536575	1
0	6004	779.230966394911	2
0	6006	779.389985758574	3
0	6007	779.475684399606	2
0	6011	780.231552125407	3
0	6012	780.504285389289	2
0	6016	780.693377956653	3
0	6018	780.773758687994	4
0	6020	781.366186424127	5
0	6022	781.446592651971	6
0	6023	781.532886378972	5
0	6025	781.532886378972	4
0	6028	781.956069792702	5
0	6029	782.561487368655	4
0	6031	782.561487368655	3
0	6032	782.561487368655	2
0	6035	782.732765605472	3
0	6036	783.590088358338	2
0	6038	783.590088358338	1
0	6039	783.590088358338	0
0	6042	784.083973573508	1
0	6044	784.133566412773	2
0	6046	784.13547694788	3
0	6047	784.618689348021	2
0	6051	784.749442834488	3
0	6053	785.471101635088	4
0	6055	785.54152203886	5
0	6056	785.647290337704	4
0	6058	785.647290337704	3
0	6059	785.647290337704	2
0	6062	786.396287199711	3
0	6063	786.675891327387	2
0	6066	787.70449231707	1
0	6068	787.70449231707	0
0	6076	789.24709766565	1
0	6078	789.281597975536	2
0	6079	790.271501346921	1
0	6082	791.300102336604	0
0	6089	792.381890817595	1
0	6090	792.447928100945	0
0	6094	792.853138434001	1
0	6096	793.03696562788	2
0	6097	793.476529090628	1
0	6101	793.487209734668	2
0	6102	794.505130080311	1
0	6106	794.718384965503	2
0	6108	794.73120431156	3
0	6110	794.937006325416	4
0	6112	795.072863028192	5
0	6113	795.533731069994	4
0	6115	795.533731069994	3
0	6118	796.333923328814	4
0	6120	796.375817815572	5
0	6121	796.562332059677	4
0	6123	796.562332059677	3
0	6124	796.562332059677	2
0	6126	797.59093304936	1
0	6130	798.027305636564	2
0	6132	798.107992465404	3
0	6134	798.110534547363	4
0	6136	798.194806564775	5
0	6138	798.306765624704	6
0	6139	798.619534039043	5
0	6141	798.619534039043	4
0	6143	799.648135028726	3
0	6145	799.648135028726	2
0	6146	799.648135028726	1
0	6149	799.913467988811	2
0	6150	800.676736018409	1
0	6152	800.676736018409	0
0	6155	801.001740842098	1
0	6157	801.127448541659	2
0	6159	801.354754537917	3
0	6161	801.584949667517	4
0	6163	801.615598606453	5
0	6164	801.705337008092	4
0	6168	801.806222065508	5
0	6169	802.733937997775	4
0	6171	802.733937997775	3
0	6174	803.378206119398	4
0	6175	803.762538987458	3
0	6177	803.762538987458	2
0	6178	803.762538987458	1
0	6179	803.762538987458	0
0	6182	804.572549291437	1
0	6184	804.630811493719	2
0	6185	804.791139977141	1
0	6189	805.365309036877	2
0	6191	805.72035757986	3
0	6192	805.819740966824	2
0	6196	806.251587267721	3
0	6198	806.397911962583	4
0	6199	806.848341956507	3
0	6203	806.851407494587	4
0	6205	806.917672339466	5
0	6207	807.232508311019	6
0	6209	807.766005326444	7
0	6210	807.87694294619	6
0	6212	807.87694294619	5
0	6213	807.87694294619	4
0	6216	808.305124497216	5
0	6217	808.905543935873	4
0	6219	808.905543935873	3
0	6220	808.905543935873	2
0	6221	808.905543935873	1
0	6224	808.945702972518	2
0	6226	809.312305027455	3
0	6228	809.750215294391	4
0	6230	809.787823542294	5
0	6231	809.934144925556	4
0	6233	809.934144925556	3
0	6236	809.968285696485	4
0	6238	810.02704663222	5
0	6240	810.438814282534	6
0	6242	810.465658369371	7
0	6243	810.962745915239	6
0	6245	810.962745915239	5
0	6248	811.097840782166	6
0	6250	811.513940625308	7
0	6251	811.991346904922	6
0	6253	811.991346904922	5
0	6254	811.991346904922	4
0	6255	811.991346904922	3
0	6256	811.991346904922	2
0	6257	811.991346904922	1
0	6260	812.765574279463	2
0	6262	813.003047544331	3
0	6263	813.019947894605	2
0	6265	813.019947894605	1
0	6268	813.033681558008	2
0	6270	813.927175669203	3
[...]
8	1390	182.998027114706	0
8	1399	184.026628104389	0
8	1410	185.055229094072	0
8	1420	186.083830083755	0
8	1429	187.112431073438	0
8	1437	188.141032063121	0
8	1445	189.169633052804	0
8	1453	190.198234042487	0
8	1462	191.22683503217	0
8	1465	192.255436021853	0
8	1474	193.284037011536	0
8	1481	194.312638001219	0
8	1484	195.341238990902	0
8	1491	196.369839980585	0
8	1495	197.398440970268	0
8	1504	198.427041959951	0
8	1509	199.455642949634	0
8	1520	200.484243939317	0
8	1533	201.512844929	0
8	1539	202.541445918683	0
8	1550	203.570046908366	0
8	1562	204.598647898049	0
8	1569	205.627248887732	0
8	1581	206.655849877415	0
8	1590	207.684450867098	0
8	1599	208.713051856781	0
8	1607	209.741652846464	0
8	1617	210.770253836147	0
8	1623	211.79885482583	0
8	1634	212.827455815513	0
8	1639	213.856056805196	0
8	1646	214.884657794879	0
8	1649	215.913258784562	0
8	1656	217.037589284937	0
8	1659	218.06619027462	0
8	1670	219.099466787334	0
8	1675	220.128067777017	0
8	1685	221.1566687667	0
8	1693	222.185269756383	0
8	1701	223.213870746066	0
8	1718	224.242471735749	0
8	1722	225.271072725432	0
8	1735	226.494927559348	0
8	1743	227.523528549031	0
8	1761	228.552129538714	0
8	1771	229.580730528397	0
8	1782	230.60933151808	0
8	1791	231.637932507763	0
8	1800	232.666533497446	0
8	1807	233.695134487129	0
8	1815	234.723735476812	0
8	1822	235.752336466495	0
8	1825	236.780937456178	0
8	1833	237.971372018035	0
8	1846	239.23772316706	0
8	1853	240.266324156743	0
8	1860	241.294925146426	0
8	1864	242.323526136109	0
8	1872	243.737133403849	0
8	1883	244.765734393532	0
8	1890	245.794335383215	0
8	1907	246.822936372898	0
8	1914	247.851537362581	0
8	1925	248.880138352264	0
8	1935	249.908739341947	0
8	1944	250.93734033163	0
8	1957	251.965941321313	0
8	1963	252.994542310996	0
8	1971	254.023143300679	0
8	1978	255.051744290362	0
8	1987	256.080345280045	0
8	1994	257.108946269728	0
8	2003	258.137547259411	0
8	2011	259.166148249094	0
8	2020	260.194749238777	0
8	2031	261.22335022846	0
8	2037	262.251951218143	0
8	2043	263.280552207826	0
8	2052	264.309153197509	0
8	2059	265.337754187192	0
8	2065	266.366355176875	0
8	2070	267.394956166558	0
8	2075	268.423557156241	0
8	2083	269.452158145924	0
8	2094	270.480759135607	0
8	2099	271.50936012529	0
8	2107	272.537961114973	0
8	2115	273.566562104656	0
8	2124	274.595163094339	0
8	2136	275.623764084022	0
8	2142	276.652365073705	0
8	2161	277.680966063388	0
8	2168	278.709567053071	0
8	2178	279.738168042754	0
8	2186	280.766769032437	0
8	2202	281.79537002212	0
8	2207	282.823971011803	0
8	2218	283.852572001486	0
8	2224	284.881172991169	0
8	2238	285.909773980852	0
8	2243	286.938374970535	0
8	2250	287.966975960218	0
8	2264	288.995576949901	0
8	2275	290.024177939584	0
8	2282	291.052778929267	0
8	2292	292.08137991895	0
8	2304	293.109980908633	0
8	2315	294.138581898316	0
8	2321	295.167182887999	0
8	2338	296.195783877682	0
8	2344	297.224384867365	0
8	2351	298.252985857048	0
8	2361	299.476840690964	0
8	2368	300.505441680647	0
8	2371	301.53404267033	0
8	2381	302.562643660013	0
8	2386	303.591244649696	0
8	2397	304.619845639379	0
8	2403	305.648446629062	0
8	2415	306.677047618745	0
8	2423	307.705648608428	0
8	2428	308.734249598111	0
8	2438	309.762850587794	0
8	2449	310.791451577477	0
8	2453	311.82005256716	0
8	2464	312.848653556843	0
8	2469	313.877254546526	0
8	2475	314.905855536209	0
8	2481	315.934456525892	0
8	2492	316.963057515575	0
8	2501	317.991658505258	0
8	2507	319.020259494941	0
8	2523	320.048860484624	0
8	2526	321.077461474307	0
8	2537	322.10606246399	0
8	2544	323.134663453673	0
8	2552	324.163264443356	0
8	2557	325.191865433039	0
8	2567	326.220466422722	0
8	2575	327.249067412405	0
8	2583	328.277668402088	0
8	2590	329.306269391771	0
8	2595	330.334870381454	0
8	2605	331.363471371137	0
8	2612	332.39207236082	0
8	2617	333.420673350503	0
8	2624	334.449274340186	0
8	2627	335.477875329869	0
8	2630	336.506476319552	0
8	2639	338.09191142402	0
8	2644	339.120512413703	0
8	2653	340.149113403386	0
8	2658	341.177714393069	0
8	2663	342.206315382752	0
8	2671	343.281868298924	0
8	2680	344.310469288607	0
8	2689	345.33907027829	0
8	2695	346.367671267973	0
8	2703	347.396272257656	0
8	2717	348.424873247339	0
8	2722	349.453474237022	0
8	2732	350.482075226705	0
8	2744	351.510676216388	0
8	2751	352.539277206071	0
8	2761	353.567878195754	0
8	2766	354.596479185437	0
8	2775	355.62508017512	0
8	2783	356.653681164803	0
8	2796	357.682282154486	0
8	2812	358.710883144169	0
8	2818	359.739484133852	0
8	2831	360.768085123535	0
8	2845	361.796686113218	0
8	2850	362.825287102901	0
8	2857	363.853888092584	0
8	2867	364.882489082267	0
8	2874	365.91109007195	0
8	2885	366.939691061633	0
8	2902	367.968292051316	0
8	2913	368.996893040999	0
8	2929	370.025494030682	0
8	2940	371.054095020365	0
8	2954	372.277949854281	0
8	2968	373.306550843964	0
8	2975	374.335151833647	0
8	2986	375.36375282333	0
8	2996	376.392353813013	0
8	3008	377.420954802696	0
8	3014	378.449555792379	0
8	3022	379.478156782062	0
8	3031	380.506757771745	0
8	3038	381.535358761428	0
8	3042	382.563959751111	0
8	3051	383.592560740794	0
8	3058	384.621161730477	0
8	3065	385.64976272016	0
8	3070	386.678363709843	0
8	3077	387.706964699526	0
8	3083	388.735565689209	0
8	3090	389.764166678892	0
8	3097	390.792767668575	0
8	3106	391.821368658258	0
8	3113	392.849969647941	0
8	3125	393.878570637624	0
8	3133	394.907171627307	0
8	3140	395.93577261699	0
8	3148	396.964373606673	0
8	3161	397.992974596356	0
8	3164	399.021575586039	0
8	3171	400.050176575722	0
8	3181	401.078777565405	0
8	3186	402.107378555088	0
8	3194	403.135979544771	0
8	3202	404.164580534454	0
8	3214	405.193181524137	0
8	3222	406.22178251382	0
8	3231	407.250383503503	0
8	3239	408.278984493186	0
8	3247	409.307585482869	0
8	3255	410.336186472552	0
8	3264	411.364787462235	0
8	3271	412.393388451918	0
8	3274	413.421989441601	0
8	3281	414.450590431284	0
8	3290	415.479191420967	0
8	3293	416.50779241065	0
8	3298	417.536393400333	0
8	3306	418.564994390016	0
8	3311	419.593595379699	0
8	3314	420.622196369382	0
8	3319	421.650797359065	0
8	3326	422.679398348748	0
8	3331	423.707999338431	0
8	3339	424.736600328114	0
8	3344	425.765201317797	0
8	3347	426.79380230748	0
8	3354	427.822403297163	0
8	3357	428.851004286846	0
8	3364	429.879605276529	0
8	3369	430.908206266212	0
8	3378	431.936807255895	0
8	3383	432.965408245578	0
8	3393	433.994009235261	0
8	3404	435.022610224944	0
8	3412	436.051211214627	0
8	3425	437.07981220431	0
8	3429	438.108413193993	0
8	3436	439.137014183676	0
8	3444	440.165615173359	0
8	3461	441.194216163042	0
8	3466	442.222817152725	0
8	3477	443.251418142408	0
8	3490	444.475272976324	0
8	3498	445.503873966007	0
8	3507	446.53247495569	0
8	3513	447.561075945373	0
8	3518	448.589676935056	0
8	3524	449.618277924739	0
8	3531	450.646878914422	0
8	3540	451.675479904105	0
8	3544	452.704080893788	0
8	3550	453.732681883471	0
8	3561	454.761282873154	0
8	3570	455.789883862837	0
8	3575	456.81848485252	0
8	3589	457.847085842203	0
8	3597	458.875686831886	0
8	3615	459.904287821569	0
8	3622	460.932888811252	0
8	3633	461.961489800935	0
8	3644	462.990090790618	0
8	3651	464.018691780301	0
8	3657	465.047292769984	0
8	3662	466.075893759667	0
8	3668	467.10449474935	0
8	3671	468.133095739033	0
8	3674	469.161696728716	0
8	3683	470.537438217724	0
8	3694	471.566039207407	0
8	3702	472.59464019709	0
8	3708	473.623241186773	0
8	3719	474.651842176456	0
8	3726	475.680443166139	0
8	3736	476.709044155822	0
8	3741	477.737645145505	0
8	3746	478.766246135188	0
8	3757	481.165837040935	0
8	3768	482.194438030618	0
8	3779	483.223039020301	0
8	3788	484.251640009984	0
8	3799	485.280240999667	0
8	3809	486.30884198935	0
8	3817	487.337442979033	0
8	3827	488.366043968716	0
8	3833	489.394644958399	0
8	3847	490.423245948082	0
8	3855	491.451846937765	0
8	3864	492.480447927448	0
8	3876	493.509048917131	0
8	3881	494.537649906814	0
8	3891	495.566250896497	0
8	3894	496.59485188618	0
8	3901	497.623452875863	0
8	3908	498.652053865546	0
8	3915	499.680654855229	0
8	3922	500.709255844912	0
8	3931	501.737856834595	0
8	3941	502.766457824278	0
8	3947	503.795058813961	0
8	3951	504.823659803644	0
8	3960	506.021786544805	0
8	3963	507.050387534488	0
8	3972	509.299872002406	0
8	3981	510.328472992089	0
8	3993	511.357073981772	0
8	3998	512.385674971455	0
8	4007	513.414275961138	0
8	4012	514.442876950821	0
8	4021	516.044546482029	0
8	4030	517.073147471712	0
8	4039	518.101748461395	0
8	4044	519.130349451078	0
8	4055	520.354204284994	0
8	4064	521.382805274677	0
8	4077	522.41140626436	0
8	4084	523.440007254043	0
8	4091	524.468608243726	0
8	4102	525.497209233409	0
8	4109	526.525810223092	0
8	4118	527.554411212775	0
8	4124	528.583012202458	0
8	4130	529.611613192141	0
8	4138	530.640214181824	0
8	4149	531.668815171507	0
8	4153	532.69741616119	0
8	4168	533.726017150873	0
8	4174	534.754618140556	0
8	4179	535.783219130239	0
8	4192	537.391422260187	0
8	4199	538.42002324987	0
8	4203	539.448624239553	0
8	4207	540.477225229236	0
8	4214	542.018661937997	0
8	4221	543.04726292768	0
8	4228	544.075863917363	0
8	4233	545.104464907046	0
8	4238	546.133065896729	0
8	4247	547.161666886412	0
8	4254	548.190267876095	0
8	4263	549.218868865778	0
8	4269	550.247469855461	0
8	4277	551.276070845144	0
8	4284	552.304671834827	0
8	4291	553.33327282451	0
8	4294	554.361873814193	0
8	4305	555.55106130171	0
8	4312	556.579662291393	0
8	4321	557.608263281076	0
8	4332	558.636864270759	0
8	4337	559.665465260442	0
8	4346	560.694066250125	0
8	4353	561.722667239808	0
8	4357	562.751268229491	0
8	4366	563.898628016018	0
8	4371	564.927229005701	0
8	4383	565.955829995384	0
8	4394	566.984430985067	0
8	4402	568.01303197475	0
8	4408	569.041632964433	0
8	4415	570.070233954116	0
8	4428	571.098834943799	0
8	4431	572.127435933482	0
8	4444	573.32914383264	0
8	4449	574.357744822323	0
8	4462	575.386345812006	0
8	4465	576.414946801689	0
8	4474	577.443547791372	0
8	4485	578.472148781055	0
8	4488	579.500749770738	0
8	4493	580.529350760421	0
8	4502	582.098406736172	0
8	4509	583.127007725855	0
8	4516	584.155608715538	0
8	4525	585.184209705221	0
8	4533	586.212810694904	0
8	4538	587.241411684587	0
8	4546	588.27001267427	0
8	4553	589.298613663953	0
8	4564	590.327214653636	0
8	4569	591.355815643319	0
8	4574	592.384416633002	0
8	4581	593.413017622685	0
8	4595	594.636872456601	0
8	4601	595.665473446284	0
8	4605	596.694074435967	0
8	4610	597.72267542565	0
8	4619	599.324908558764	0
8	4626	600.353509548447	0
8	4636	601.38211053813	0
8	4641	602.410711527813	0
8	4650	603.439312517496	0
8	4663	604.467913507179	0
8	4673	605.496514496862	0
8	4680	606.525115486545	0
8	4688	607.553716476228	0
8	4696	608.582317465911	0
8	4700	609.610918455594	0
8	4708	610.927442047957	0
8	4711	611.95604303764	0
8	4724	613.85085791258	0
8	4727	614.879458902263	0
8	4737	615.908059891946	0
8	4745	616.936660881629	0
8	4751	617.965261871312	0
8	4754	618.993862860995	0
8	4760	620.022463850678	0
8	4773	621.051064840361	0
8	4778	622.079665830044	0
8	4788	623.108266819727	0
8	4798	624.13686780941	0
8	4803	625.165468799093	0
8	4811	626.194069788776	0
8	4820	627.222670778459	0
8	4823	628.251271768142	0
8	4828	629.279872757825	0
8	4834	630.308473747508	0
8	4837	631.337074737191	0
8	4848	632.451582695832	0
8	4855	633.480183685515	0
8	4858	634.508784675198	0
8	4870	635.580119773787	0
8	4883	636.60872076347	0
8	4888	637.637321753153	0
8	4898	638.665922742836	0
8	4906	639.694523732519	0
8	4916	640.723124722202	0
8	4922	641.751725711885	0
8	4932	642.780326701568	0
8	4935	643.808927691251	0
8	4944	644.837528680934	0
8	4951	645.866129670617	0
8	4955	646.8947306603	0
8	4966	648.116401804608	0
8	4979	649.145002794291	0
8	4987	650.173603783974	0
8	4996	651.202204773657	0
8	5007	652.23080576334	0
8	5017	653.259406753023	0
8	5021	654.288007742706	0
8	5036	656.049850462327	0
8	5045	657.07845145201	0
8	5052	658.107052441693	0
8	5059	659.135653431376	0
8	5066	660.164254421059	0
8	5069	661.192855410742	0
8	5078	662.221456400425	0
8	5085	663.250057390108	0
8	5097	664.278658379791	0
8	5102	665.307259369474	0
8	5109	666.335860359157	0
8	5119	667.36446134884	0
8	5128	668.393062338523	0
8	5132	669.616917172439	0
8	5140	670.645518162122	0
8	5150	671.674119151805	0
8	5157	672.702720141488	0
8	5165	673.731321131171	0
8	5170	674.759922120854	0
8	5180	675.788523110537	0
8	5189	676.81712410022	0
8	5194	677.845725089903	0
8	5203	678.874326079586	0
8	5208	679.902927069269	0
8	5211	680.931528058952	0
8	5218	682.327688791117	0
8	5227	683.3562897808	0
8	5232	684.384890770483	0
8	5241	685.413491760166	0
8	5246	686.442092749849	0
8	5255	687.470693739532	0
8	5267	688.499294729215	0
8	5275	689.527895718898	0
8	5286	690.556496708581	0
8	5295	691.585097698264	0
8	5300	692.613698687947	0
8	5307	693.991407023043	0
8	5314	695.556083735122	0
8	5319	696.584684724805	0
8	5326	697.613285714488	0
8	5333	698.641886704171	0
8	5338	699.670487693854	0
8	5341	700.699088683537	0
8	5351	701.72768967322	0
8	5358	702.756290662903	0
8	5363	703.784891652586	0
8	5372	704.813492642269	0
8	5376	705.842093631952	0
8	5392	706.873622637094	0
8	5401	707.902223626777	0
8	5412	708.93082461646	0
8	5418	709.959425606143	0
8	5432	710.988026595826	0
8	5441	712.016627585509	0
8	5449	713.045228575192	0
8	5459	714.073829564875	0
8	5468	715.102430554558	0
8	5473	716.131031544241	0
8	5487	717.159632533924	0
8	5494	718.188233523607	0
8	5504	719.21683451329	0
8	5519	720.245435502973	0
8	5538	721.274036492656	0
8	5551	722.302637482339	0
8	5564	723.331238472022	0
8	5575	724.359839461705	0
8	5578	725.388440451388	0
8	5591	727.463007212531	0
8	5596	728.491608202214	0
8	5601	729.520209191897	0
8	5609	730.54881018158	0
8	5617	731.577411171263	0
8	5627	732.606012160946	0
8	5632	733.634613150629	0
8	5642	734.663214140312	0
8	5655	735.691815129995	0
8	5664	736.720416119678	0
8	5674	737.749017109361	0
8	5679	738.777618099044	0
8	5685	739.806219088727	0
8	5691	740.83482007841	0
8	5700	741.863421068093	0
8	5709	742.892022057776	0
8	5714	744.115876891692	0
8	5727	745.144477881375	0
8	5736	746.173078871058	0
8	5747	747.201679860741	0
8	5756	748.230280850424	0
8	5764	749.258881840107	0
8	5776	750.28748282979	0
8	5785	751.316083819473	0
8	5791	752.344684809156	0
8	5806	753.373285798839	0
8	5816	754.401886788522	0
8	5823	755.430487778205	0
8	5831	756.459088767888	0
8	5838	757.487689757571	0
8	5849	758.516290747254	0
8	5856	759.544891736937	0
8	5860	760.57349272662	0
8	5872	761.818893274231	0
8	5879	762.847494263914	0
8	5884	763.876095253597	0
8	5889	764.90469624328	0
8	5900	765.933297232963	0
8	5907	766.961898222646	0
8	5919	767.990499212329	0
8	5927	769.019100202012	0
8	5938	770.047701191695	0
8	5948	771.076302181378	0
8	5958	772.104903171061	0
8	5962	773.133504160744	0
8	5970	775.341989809985	0
8	5987	776.389881430557	0
8	5992	777.41848242024	0
8	5996	778.447083409923	0
8	6008	779.475684399606	0
8	6013	780.504285389289	0
8	6024	781.532886378972	0
8	6030	782.561487368655	0
8	6037	783.590088358338	0
8	6048	784.618689348021	0
8	6057	785.647290337704	0
8	6064	786.675891327387	0
8	6067	787.70449231707	0
8	6071	788.733093306753	0
8	6080	790.271501346921	0
8	6083	791.300102336604	0
8	6091	792.447928100945	0
8	6098	793.476529090628	0
8	6103	794.505130080311	0
8	6114	795.533731069994	0
8	6122	796.562332059677	0
8	6127	797.59093304936	0
8	6140	798.619534039043	0
8	6144	799.648135028726	0
8	6151	800.676736018409	0
8	6165	801.705337008092	0
8	6170	802.733937997775	0
8	6176	803.762538987458	0
8	6186	804.791139977141	0
8	6193	805.819740966824	0
8	6200	806.848341956507	0
8	6211	807.87694294619	0
8	6218	808.905543935873	0
8	6232	809.934144925556	0
8	6244	810.962745915239	0
8	6252	811.991346904922	0
8	6264	813.019947894605	0
8	6272	814.048548884288	0
8	6279	815.077149873971	0
8	6289	816.105750863654	0
8	6296	817.134351853337	0
8	6314	818.358206687253	0
8	6323	819.386807676936	0
8	6329	820.415408666619	0
8	6338	821.444009656302	0
8	6348	822.472610645985	0
8	6353	823.501211635668	0
8	6358	824.529812625351	0
8	6364	826.559209454338	0
8	6377	827.62491577922	0
8	6384	828.653516768903	0
8	6392	829.682117758586	0
8	6402	830.710718748269	0
8	6414	831.739319737952	0
8	6417	832.767920727635	0
8	6430	833.896610602389	0
8	6437	834.925211592072	0
8	6446	835.953812581755	0
8	6460	836.982413571438	0
8	6465	838.011014561121	0
8	6480	839.039615550804	0
8	6487	840.068216540487	0
8	6493	841.09681753017	0
8	6499	842.125418519853	0
8	6504	843.83165870255	0
8	6515	844.991851962177	0
8	6524	846.02045295186	0
8	6533	847.049053941543	0
8	6541	848.077654931226	0
8	6549	849.106255920909	0
8	6560	850.134856910592	0
8	6576	851.163457900275	0
8	6582	852.192058889958	0
8	6593	853.220659879641	0
8	6602	854.249260869324	0
8	6608	855.277861859007	0
8	6615	856.30646284869	0
8	6626	857.335063838373	0
8	6637	858.363664828056	0
8	6642	859.392265817739	0
8	6650	861.9236151305	0
8	6655	863.104767018103	0
8	6662	864.739752365717	0
8	6667	865.7683533554	0
8	6676	866.796954345083	0
8	6679	867.825555334766	0
8	6688	868.854156324449	0
8	6698	869.882757314132	0
8	6703	870.911358303815	0
8	6713	871.939959293498	0
8	6718	872.968560283181	0
8	6723	873.997161272864	0
8	6736	875.294488186736	0
8	6745	876.323089176419	0
8	6752	877.351690166102	0
8	6760	878.380291155785	0
8	6776	879.408892145468	0
8	6792	880.437493135151	0
8	6807	881.466094124834	0
8	6827	882.494695114517	0
8	6834	883.5232961042	0
8	6843	884.551897093883	0
8	6850	885.787760374178	0
8	6859	887.191045885535	0
8	6866	888.219646875218	0
8	6871	889.248247864901	0
8	6885	890.276848854584	0
8	6895	891.305449844267	0
8	6907	892.33405083395	0
8	6918	893.362651823633	0
8	6926	894.391252813316	0
8	6937	895.615107647232	0
8	6951	896.643708636915	0
8	6957	897.672309626598	0
8	6961	898.700910616281	0
8	6969	899.729511605964	0
8	6980	900.758112595647	0
8	6987	901.78671358533	0
8	6999	902.815314575013	0
8	7008	903.843915564696	0
8	7017	904.872516554379	0
8	7026	905.901117544062	0
8	7035	906.929718533745	0
8	7052	907.958319523428	0
8	7060	908.986920513111	0
8	7070	910.015521502794	0
8	7080	911.044122492477	0
8	7086	912.07272348216	0
8	7093	913.101324471843	0
8	7104	914.129925461526	0
8	7114	915.158526451209	0
8	7126	916.187127440892	0
8	7131	917.215728430575	0
8	7139	918.244329420258	0
8	7143	919.272930409941	0
8	7148	920.395802429591	0
8	7157	921.462306630344	0
8	7166	922.490907620027	0
8	7179	923.51950860971	0
8	7183	924.548109599393	0
8	7194	925.576710589076	0
8	7204	926.605311578759	0
8	7210	927.633912568442	0
8	7218	928.662513558125	0
8	7224	929.691114547808	0
8	7231	930.719715537491	0
8	7244	931.748316527174	0
8	7255	932.776917516857	0
8	7262	933.80551850654	0
8	7271	934.834119496223	0
8	7285	935.862720485906	0
8	7291	936.891321475589	0
8	7298	937.919922465272	0
8	7308	938.948523454955	0
8	7315	939.977124444638	0
8	7324	941.005725434321	0
8	7329	942.034326424004	0
8	7334	943.062927413687	0
8	7351	944.717281997531	0
8	7358	945.745882987214	0
8	7367	946.774483976897	0
8	7381	947.80308496658	0
8	7386	948.831685956263	0
8	7395	949.860286945946	0
8	7406	950.888887935629	0
8	7414	951.917488925312	0
8	7421	952.946089914995	0
8	7431	953.974690904678	0
8	7438	955.003291894361	0
8	7444	956.031892884044	0
8	7457	957.060493873727	0
8	7464	958.08909486341	0
8	7479	959.117695853093	0
8	7488	960.146296842776	0
8	7495	961.174897832459	0
8	7502	962.203498822142	0
8	7511	963.232099811825	0
8	7518	964.260700801508	0
8	7534	965.289301791191	0
8	7539	966.317902780874	0
8	7548	967.346503770557	0
8	7561	968.570358604473	0
8	7571	969.598959594156	0
8	7578	970.627560583839	0
8	7585	971.656161573522	0
8	7590	972.684762563205	0
8	7601	973.713363552888	0
8	7610	974.741964542571	0
8	7621	975.770565532254	0
8	7631	976.799166521937	0
8	7635	977.82776751162	0
8	7644	978.856368501303	0
8	7652	979.884969490986	0
8	7661	980.913570480669	0
8	7672	981.942171470352	0
8	7683	982.970772460035	0
8	7692	983.999373449718	0
8	7700	985.027974439401	0
8	7706	986.056575429084	0
8	7711	987.085176418767	0
8	7714	988.11377740845	0
8	7725	990.340426489122	0
8	7734	991.369027478805	0
8	7738	992.397628468488	0
8	7746	993.469669976389	0
8	7759	994.548965891396	0
8	7766	995.577566881079	0
8	7772	996.606167870762	0
8	7780	997.634768860445	0
8	7789	998.663369850128	0
8	7794	999.691970839811	0

