version 2
run General-465-20240201-11:04:32-40057
attr configname General
attr datetime 20240201-11:04:32
attr experiment General
attr inifile main.ini
attr iterationvars "$0=1.0, $1=3.5, $2=70"
attr iterationvarsf 1.0,3.5,70-
attr measurement "$0=1.0, $1=3.5, $2=70"
attr network Rete
attr processid 40057
attr repetition 5
attr replication #5
attr resultdir results
attr runnumber 465
attr seedset 465
param Rete.lambda 1.0
param Rete.a 0.3s
param Rete.b 3.5s
param Rete.c 0.1s
param Rete.d 0.3s
param Rete.mu 3.0
param Rete.source2.interArrivalTime exponential(1s/lambda)
param Rete.source2.jobServiceTime exponential(1s/mu)
param Rete.source2.deadline uniform(a,b)
param Rete.server2.j 70
param Rete.server2.V uniform(c,d)

vector 0 Rete.passiveQueue queueLength:vector ETV
attr interpolationmode sample-hold
attr title "queue length, vector"
vector 1 Rete.sink lifeTime:vector ETV
attr interpolationmode none
attr title "lifetime of arrived jobs, vector"
attr unit s
vector 2 Rete.sink totalQueueingTime:vector ETV
attr interpolationmode none
attr title "the total time spent in queues by arrived jobs, vector"
attr unit s
vector 3 Rete.sink queuesVisited:vector ETV
attr interpolationmode none
attr title "the total number of queues visited by arrived jobs, vector"
vector 4 Rete.sink totalServiceTime:vector ETV
attr interpolationmode none
attr title "the total time spent  by arrived jobs, vector"
attr unit s
vector 5 Rete.sink totalDelayTime:vector ETV
attr interpolationmode none
attr title "the total time spent in delay nodes by arrived jobs, vector"
attr unit s
vector 6 Rete.sink delaysVisited:vector ETV
attr interpolationmode none
attr title "the total number of delays visited by arrived jobs, vector"
vector 7 Rete.sink generation:vector ETV
attr interpolationmode none
attr title "the generation of the arrived jobs, vector"
vector 8 Rete.passiveQueue queueingTime:vector ETV
attr interpolationmode none
attr title "queueing time at dequeue, vector"
attr unit s
0	0	0	0
0	15	4.530156298493	1
0	17	4.84077772333	2
0	19	4.893918889672	3
0	20	4.920803652886	2
0	23	5.358684924337	1
0	27	5.498118175543	2
0	29	5.567074891978	3
0	30	5.796566195788	2
0	32	5.796566195788	1
0	34	6.234447467239	0
0	48	10.577603463301	1
0	49	10.8708834655	0
0	63	15.420116841317	1
0	65	15.573095796587	2
0	66	15.765176880134	1
0	70	16.094053801339	2
0	71	16.203058151585	1
0	74	16.640939423036	0
0	83	17.550031072916	1
0	85	17.618964835755	2
0	86	17.69190768531	1
0	90	17.864232946999	2
0	91	18.129788956761	1
0	95	18.236535879245	2
0	96	18.567670228212	1
0	99	19.005551499663	0
0	103	19.356012189398	1
0	104	19.443432771114	0
0	113	22.264204359425	1
0	114	22.561668415632	0
0	148	31.030803398302	1
0	149	31.258671824357	0
0	163	36.082722780157	1
0	164	36.367932725135	0
0	178	38.433489473039	1
0	179	38.454309891494	0
0	193	40.627657431052	1
0	194	40.813708265773	0
0	208	44.598418306836	1
0	209	44.68798864265	0
0	218	45.967257220911	1
0	220	45.97438305499	2
0	221	46.212234958778	1
0	225	46.642487226399	2
0	226	46.650116230229	1
0	229	47.08799750168	0
0	238	47.792367607258	1
0	239	48.064007468213	0
0	248	52.246253393889	1
0	249	52.278661884734	0
0	268	55.753908373213	1
0	269	55.872895820761	0
0	278	56.711245860748	1
0	279	56.847587469165	0
0	293	64.947683249395	1
0	294	64.996951807696	0
0	298	65.156318495431	1
0	299	65.434833079147	0
0	303	65.583824057952	1
0	304	65.872714350598	0
0	318	67.804857667951	1
0	319	67.955264453037	0
0	333	72.61523478255	1
0	334	72.620588105358	0
0	353	76.371273615425	1
0	356	76.963368112613	0
0	364	77.661374561609	1
0	365	77.880592503157	0
0	369	78.257234463907	1
0	370	78.318473774608	0
0	394	82.834739793151	1
0	395	83.06703709712	0
0	404	83.839083762674	1
0	405	84.011077770499	0
0	419	87.529728549133	1
0	421	87.541902982806	2
0	422	87.682708164264	1
0	426	87.904271244547	2
0	427	88.120589435715	1
0	431	88.431814762662	2
0	432	88.558470707166	1
0	435	88.996351978617	0
0	464	96.621264406648	1
0	465	96.994321479526	0
0	494	102.041980930702	1
0	495	102.329302575768	0
0	499	102.69800434467	1
0	500	102.767183847219	0
0	514	104.928666023119	1
0	515	105.054951618994	0
0	524	106.34911556205	1
0	525	106.371385599356	0
0	529	106.752706746644	1
0	530	106.809266870807	0
0	539	108.193326040779	1
0	541	108.204610044699	2
0	542	108.388293851471	1
0	546	108.638326894195	2
0	547	108.826175122922	1
0	551	109.163152334566	2
0	552	109.264056394373	1
0	556	109.418952899525	2
0	557	109.701937665824	1
0	560	110.139818937275	0
0	574	112.723578504594	1
0	575	113.117981356795	0
0	579	113.210350539057	1
0	580	113.555862628246	0
0	584	113.82685609114	1
0	586	113.931879428744	2
0	587	113.993743899697	1
0	590	114.431625171148	0
0	599	115.289576493544	1
0	600	115.458874582721	0
0	604	115.605220156662	1
0	606	115.7124510639	2
0	607	115.896755854172	1
0	610	116.334637125623	0
0	634	124.519874528568	1
0	636	124.571791922961	2
0	637	124.880804662378	1
0	640	125.318685933829	0
0	674	130.735523504983	1
0	675	130.777793029284	0
0	699	140.984184878565	1
0	701	141.227196384271	2
0	702	141.307737083055	1
0	707	141.971133883507	0
0	715	143.268382314403	1
0	716	143.583790780114	0
0	720	143.649491089784	1
0	722	143.927547967671	2
0	723	144.021672051565	1
0	726	144.459553323016	0
0	765	154.581740096197	1
0	766	154.701743617324	0
0	780	157.593619520882	1
0	781	157.822799113353	0
0	790	158.909076248397	1
0	791	158.977936403831	0
0	800	160.706100227972	1
0	802	160.769285393142	2
0	803	161.084216126635	1
0	806	161.522097398086	0
0	815	162.161421088868	1
0	816	162.432432954494	0
0	820	162.512144236463	1
0	821	162.870314225945	0
0	840	165.439308969485	1
0	841	165.858773178006	0
0	850	167.954655815278	1
0	851	168.09772573506	0
0	855	168.351215694753	1
0	856	168.535607006511	0
0	865	170.372166847603	1
0	866	170.547960802207	0
0	875	171.576207881854	1
0	876	171.59733461797	0
0	880	171.7920891325	1
0	881	172.035215889421	0
0	895	174.436561099884	1
0	896	174.529246648394	0
0	920	179.254303027349	1
0	921	179.676985190158	0
0	940	182.615870592832	1
0	941	182.966851219142	0
0	960	188.139772296319	1
0	961	188.228651877689	0
0	980	191.118326718791	1
0	981	191.495336746602	0
0	985	191.929390743639	1
0	986	191.933218018053	0
0	990	192.18348624536	1
0	992	192.240619313824	2
0	993	192.371099289504	1
0	997	192.452654460931	2
0	999	192.671899685392	3
0	1000	192.808980560955	2
0	1003	193.246861832406	1
0	1007	193.268519301898	2
0	1009	193.491007342741	3
0	1010	193.684743103857	2
0	1012	193.684743103857	1
0	1014	194.122624375308	0
0	1023	194.941397226551	1
0	1024	195.222366515685	0
0	1033	196.756079521234	1
0	1034	196.831949279645	0
0	1038	196.936407508961	1
0	1039	197.269830551096	0
0	1043	197.598566088965	1
0	1044	197.707711822547	0
0	1069	203.278814229506	1
0	1070	203.671658771266	0
0	1089	207.202388153255	1
0	1090	207.528066718677	0
0	1099	208.855667211761	1
0	1101	208.891534630875	2
0	1102	209.085312762957	1
0	1105	209.523194034408	0
0	1109	209.530045383677	1
0	1110	209.961075305859	0
0	1114	209.991380750258	1
0	1116	210.107901813346	2
0	1117	210.39895657731	1
0	1120	210.836837848761	0
0	1124	211.251645212271	1
0	1125	211.274719120212	0
0	1129	211.424324947984	1
0	1130	211.712600391663	0
0	1169	219.716272160745	1
0	1170	219.874085611075	0
0	1209	229.02703955964	1
0	1210	229.375799285599	0
0	1214	229.808173852051	1
0	1215	229.81368055705	0
0	1224	230.891850841456	1
0	1225	230.904655829955	0
0	1264	240.056965106118	1
0	1265	240.21607416326	0
0	1279	243.779746889213	1
0	1281	244.120142947531	2
0	1282	244.213355373015	1
0	1285	244.651236644466	0
0	1304	247.028237243778	1
0	1305	247.143201982401	0
0	1314	247.860983209568	1
0	1315	248.167708912036	0
0	1324	249.773171579001	1
0	1325	250.073261845509	0
0	1344	252.240468291325	1
0	1345	252.466972313627	0
0	1384	261.064436114929	1
0	1385	261.35877130121	0
0	1389	261.48127059078	1
0	1390	261.796652572661	0
0	1399	263.006248270991	1
0	1401	263.016336109989	2
0	1402	263.280179932173	1
0	1405	263.718061203624	0
0	1409	264.076202202335	1
0	1412	264.381458004076	0
0	1420	267.375692956532	1
0	1421	267.588465009638	0
0	1430	268.860587766694	1
0	1432	268.864820353638	2
0	1433	269.259592295567	1
0	1436	269.697473567018	0
0	1465	276.486143400801	1
0	1466	276.575676736909	0
0	1485	281.120823378639	1
0	1486	281.392828610111	0
0	1520	290.181793544553	1
0	1522	290.306895698914	2
0	1524	290.354748156493	3
0	1525	290.363493809876	2
0	1528	290.801375081327	1
0	1531	291.239256352778	0
0	1548	294.969925519013	1
0	1549	295.175130329754	0
0	1573	300.822773363162	1
0	1575	301.01439645435	2
0	1576	301.20795929496	1
0	1579	301.645840566411	0
0	1583	301.690393774682	1
0	1584	302.083721837862	0
0	1593	305.291048500044	1
0	1595	305.479971861501	2
0	1596	305.503428175757	1
0	1600	305.568294176838	2
0	1601	305.941309447208	1
0	1604	306.379190718659	0
0	1613	311.439312385711	1
0	1615	311.511001426046	2
0	1617	311.574747864399	3
0	1618	311.841853863273	2
0	1621	312.279735134724	1
0	1624	312.717616406175	0
0	1646	322.843122965778	1
0	1647	322.850056631333	0
0	1651	322.87537975138	1
0	1652	323.287937902784	0
0	1666	325.043135788967	1
0	1667	325.463990489806	0
0	1681	330.105592488452	1
0	1682	330.438941595671	0
0	1706	336.555848566997	1
0	1707	336.841221764551	0
0	1726	345.010542241472	1
0	1727	345.362220298029	0
0	1736	348.261747464742	1
0	1737	348.562840982273	0
0	1746	349.245413677148	1
0	1747	349.580892786572	0
0	1782	359.53007589124	1
0	1783	359.833056264043	0
0	1787	360.22654973069	1
0	1788	360.270937535494	0
0	1797	361.933153264953	1
0	1798	362.085501254853	0
0	1832	373.683680136689	1
0	1833	374.026453950052	0
0	1837	374.026703197839	1
0	1838	374.464335221503	0
0	1842	374.615269163308	1
0	1843	374.902216492954	0
0	1847	374.99493926817	1
0	1848	375.340097764405	0
0	1852	375.695717597403	1
0	1853	375.777979035856	0
0	1857	376.000441077275	1
0	1858	376.215860307307	0
0	1862	376.418491432829	1
0	1864	376.434594823309	2
0	1865	376.653741578758	1
0	1869	376.822071104325	2
0	1870	377.091622850209	1
0	1873	377.52950412166	0
0	1887	379.083307138639	1
0	1889	379.212042985053	2
0	1890	379.413385240522	1
0	1893	379.851266511973	0
0	1907	381.841271609228	1
0	1909	382.0103684013	2
0	1910	382.213921284218	1
0	1913	382.651802555669	0
0	1922	383.18722277125	1
0	1923	383.539092247237	0
0	1927	383.625926928851	1
0	1928	383.976973518688	0
0	1932	384.192377818546	1
0	1933	384.414854790139	0
0	1942	386.764275182471	1
0	1943	386.975345800047	0
0	1972	392.847330514199	1
0	1974	392.963579499706	2
0	1975	393.196544626774	1
0	1978	393.634425898225	0
0	1992	395.287936521829	1
0	1993	395.531097887667	0
0	1997	395.599283271288	1
0	1998	395.968979159118	0
0	2007	397.715346449641	1
0	2008	397.953931647133	0
0	2017	399.666955851672	1
0	2018	399.872256789437	0
0	2047	412.115183744069	1
0	2049	412.214808156477	2
0	2050	412.274859836466	1
0	2053	412.712741107917	0
0	2062	413.484232562663	1
0	2064	413.773667484064	2
0	2065	413.905135641738	1
0	2068	414.343016913189	0
0	2082	416.680139195005	1
0	2083	416.744819915199	0
0	2102	421.520120303832	1
0	2103	421.942738796656	0
0	2119	429.892096689031	1
0	2120	429.974321865409	0
0	2128	430.732864743559	1
0	2130	430.825890752559	2
0	2131	430.999464137685	1
0	2134	431.437345409136	0
0	2153	434.220927573461	1
0	2155	434.485820836131	2
0	2156	434.509739688656	1
0	2160	434.806500179476	2
0	2161	434.947620960107	1
0	2165	435.087715207437	2
0	2166	435.385502231558	1
0	2170	435.42161921331	2
0	2172	435.739887106353	3
0	2173	435.823383503009	2
0	2176	436.26126477446	1
0	2180	436.570789691837	2
0	2181	436.699146045911	1
0	2183	436.699146045911	0
0	2196	443.187873901115	1
0	2197	443.285644678341	0
0	2201	443.612356604299	1
0	2202	443.723525949792	0
0	2216	447.323292158759	1
0	2217	447.714741577023	0
0	2231	449.118570435488	1
0	2232	449.402587212706	0
0	2236	449.423270823835	1
0	2238	449.594076997127	2
0	2239	449.840468484157	1
0	2243	450.201477941049	2
0	2244	450.278349755608	1
0	2247	450.716231027059	0
0	2251	450.860757556598	1
0	2252	451.15411229851	0
0	2261	453.606866217465	1
0	2262	453.82544724749	0
0	2271	455.959700494501	1
0	2273	456.140054174906	2
0	2274	456.165466983355	1
0	2277	456.603348254806	0
0	2281	456.971142284969	1
0	2283	457.032172794492	2
0	2284	457.041229526257	1
0	2288	457.22030657684	2
0	2290	457.460742849157	3
0	2291	457.479110797708	2
0	2295	457.784580213483	3
0	2296	457.916992069159	2
0	2300	458.041128680657	3
0	2301	458.35487334061	2
0	2303	458.35487334061	1
0	2305	458.792754612061	0
0	2314	462.223024585646	1
0	2315	462.532514112575	0
0	2354	470.556054737268	1
0	2355	470.866110940635	0
0	2384	477.187641993669	1
0	2386	477.441810466697	2
0	2387	477.507993449125	1
0	2390	477.945874720576	0
0	2394	478.209300428956	1
0	2396	478.215777003354	2
0	2397	478.383755992027	1
0	2401	478.753089052362	2
0	2402	478.821637263478	1
0	2405	479.259518534929	0
0	2414	482.085901588416	1
0	2415	482.487875231895	0
0	2429	485.68909713734	1
0	2430	485.947011181225	0
0	2439	487.074505502132	1
0	2440	487.419311890331	0
0	2444	487.791819977318	1
0	2445	487.857193161782	0
0	2474	496.104693521989	1
0	2477	496.558452651234	0
0	2480	496.698979182635	1
0	2481	496.996333922685	0
0	2485	497.177166395239	1
0	2486	497.434215194136	0
0	2490	497.653178021952	1
0	2491	497.872096465587	0
0	2505	503.920920317413	1
0	2507	504.068719082683	2
0	2508	504.291687443931	1
0	2511	504.729568715382	0
0	2545	513.073214559763	1
0	2546	513.274574662486	0
0	2555	514.136336300134	1
0	2556	514.200061692802	0
0	2560	514.22917002414	1
0	2561	514.637942964253	0
0	2570	516.188158427648	1
0	2571	516.223300191386	0
0	2590	519.039225823565	1
0	2591	519.137692795473	0
0	2600	520.232263165897	1
0	2601	520.347043746218	0
0	2620	527.617013822876	1
0	2621	527.997053354067	0
0	2625	528.216061480009	1
0	2626	528.434934625518	0
0	2635	531.326869894072	1
0	2636	531.419183216114	0
0	2650	533.373411878652	1
0	2651	533.704945330912	0
0	2655	534.041854681679	1
0	2656	534.142826602363	0
0	2690	542.485849781783	1
0	2691	542.903840443968	0
0	2700	543.365931087651	1
0	2701	543.794752408125	0
0	2715	546.069288413579	1
0	2716	546.160891798104	0
0	2725	546.842546165389	1
0	2726	547.187264335626	0
0	2750	549.74468197235	1
0	2751	549.773861793283	0
0	2770	552.035691050813	1
0	2771	552.357264509725	0
0	2780	553.747900722157	1
0	2781	554.123195668956	0
0	2805	557.968450871273	1
0	2806	558.273072385054	0
0	2810	558.461034907856	1
0	2811	558.710953656505	0
0	2815	558.902338676653	1
0	2817	559.006022611496	2
0	2818	559.148834927956	1
0	2821	559.586716199407	0
0	2831	563.003898724723	1
0	2832	563.345983650574	0
0	2841	566.53347774186	1
0	2842	566.721836357345	0
0	2846	566.927058160832	1
0	2847	567.159717628796	0
0	2856	569.337595032476	1
0	2857	569.556171866742	0
0	2861	569.786669265581	1
0	2862	569.994053138193	0
0	2866	570.221887539112	1
0	2867	570.431934409644	0
0	2891	577.349822347063	1
0	2892	577.628407044649	0
0	2906	579.830774861815	1
0	2907	580.037880262671	0
0	2911	580.365840520902	1
0	2913	580.397289562351	2
0	2914	580.475761534122	1
0	2917	580.913642805573	0
0	2921	581.126687961084	1
0	2922	581.351524077024	0
0	2926	581.407870993256	1
0	2927	581.789405348475	0
0	2936	584.362035204059	1
0	2937	584.442244263462	0
0	2946	585.107720337029	1
0	2947	585.373780340164	0
0	2971	590.421757240957	1
0	2972	590.426109281244	0
0	2996	597.098902560083	1
0	2998	597.104727046195	2
0	2999	597.211142902327	1
0	3002	597.649024173778	0
0	3006	597.982006064647	1
0	3007	598.086905445229	0
0	3016	598.925240414638	1
0	3017	599.09175809012	0
0	3026	605.995602064164	1
0	3027	606.332020770062	0
0	3031	606.44587948942	1
0	3032	606.769902041513	0
0	3036	607.163367009731	1
0	3037	607.207783312964	0
0	3041	607.388634908809	1
0	3043	607.555830661417	2
0	3044	607.645664584415	1
0	3047	608.083545855866	0
0	3061	610.040998696386	1
0	3063	610.232757070467	2
0	3064	610.264687389979	1
0	3067	610.70256866143	0
0	3071	610.852987861089	1
0	3073	611.004429197145	2
0	3074	611.140449932881	1
0	3077	611.578331204332	0
0	3101	618.623007082456	1
0	3102	618.797492400196	0
0	3121	621.525051770214	1
0	3122	621.899017088934	0
0	3156	626.624948601207	1
0	3157	626.691050998974	0
0	3197	636.944776274802	1
0	3198	637.354202923431	0
0	3227	647.48299530543	1
0	3228	647.511174860264	0
0	3237	648.963299258743	1
0	3238	649.373722989701	0
0	3242	649.558359694733	1
0	3243	649.811604261152	0
0	3252	651.176363455529	1
0	3254	651.259180072088	2
0	3256	651.386229498902	3
0	3257	651.425049470891	2
0	3260	651.862930742342	1
0	3263	652.300812013793	0
0	3270	654.455276419015	1
0	3271	654.489011363875	0
0	3275	654.643371685323	1
0	3276	654.926892635326	0
0	3285	656.657563057725	1
0	3286	657.07162951873	0
0	3300	659.655525751495	1
0	3301	659.781306134114	0
0	3315	663.184137288517	1
0	3316	663.313975707833	0
0	3335	668.306878624979	1
0	3337	668.380959239369	2
0	3338	668.475079737793	1
0	3341	668.912961009244	0
0	3360	671.281956493474	1
0	3361	671.442575872526	0
0	3365	671.72100553643	1
0	3366	671.880457143977	0
0	3390	674.617246530527	1
0	3392	674.760346534599	2
0	3393	675.027404837913	1
0	3396	675.465286109364	0
0	3400	675.495991876648	1
0	3401	675.903167380815	0
0	3410	676.67796301193	1
0	3411	677.000623899839	0
0	3435	681.41153291702	1
0	3436	681.714607791999	0
0	3440	681.825420145912	1
0	3442	682.137693865527	2
0	3443	682.15248906345	1
0	3446	682.590370334901	0
0	3450	682.768799102438	1
0	3451	683.028251606352	0
0	3455	683.461753194233	1
0	3456	683.466132877803	0
0	3460	683.644305819387	1
0	3461	683.904014149254	0
0	3505	696.754635090377	1
0	3506	697.046866517963	0
0	3530	701.306546990492	1
0	3533	701.71370549795	0
0	3551	706.513564064578	1
0	3552	706.713452385335	0
0	3556	706.815529834362	1
0	3557	707.151333656786	0
0	3561	707.281195558957	1
0	3562	707.589214928237	0
0	3581	714.031878877543	1
0	3583	714.312123394851	2
0	3584	714.456819426171	1
0	3587	714.894700697622	0
0	3591	715.226062351593	1
0	3592	715.332581969073	0
0	3596	715.474428105015	1
0	3598	715.5503230978	2
0	3599	715.770463240524	1
0	3603	715.991107609539	2
0	3604	716.208344511975	1
0	3608	716.363365213936	2
0	3610	716.410218864988	3
0	3611	716.646225783426	2
0	3614	717.084107054877	1
0	3618	717.274736890215	2
0	3619	717.521988326328	1
0	3621	717.521988326328	0
0	3634	720.164666020465	1
0	3635	720.376071258703	0
0	3664	727.942039948629	1
0	3665	728.3253592104	0
0	3674	729.118062575181	1
0	3675	729.525438581516	0
0	3679	729.80527405773	1
0	3680	729.963319852967	0
0	3689	730.521978004104	1
0	3690	730.948595969478	0
0	3694	731.062119326532	1
0	3695	731.386477240929	0
0	3699	731.691069997066	1
0	3700	731.82435851238	0
0	3714	734.761518733092	1
0	3715	734.832082919569	0
0	3719	735.06849895771	1
0	3720	735.26996419102	0
0	3729	736.335142391242	1
0	3730	736.350963856301	0
0	3739	737.209046079317	1
0	3740	737.543521408536	0
0	3744	737.743546909435	1
0	3745	737.981402679987	0
0	3754	740.029153664849	1
0	3755	740.265941435431	0
0	3769	743.559039220711	1
0	3770	743.793195413245	0
0	3789	749.570111951122	1
0	3790	749.617257923177	0
0	3799	750.95657274312	1
0	3800	751.269040108817	0
0	3809	754.071903475321	1
0	3811	754.178417823984	2
0	3812	754.234938986485	1
0	3816	754.633025152519	2
0	3817	754.672820257936	1
0	3820	755.110701529387	0
0	3854	769.020280397473	1
0	3856	769.142954807199	2
0	3857	769.411679370854	1
0	3861	769.554844798385	2
0	3863	769.577637157774	3
0	3865	769.845819191716	4
0	3866	769.849560642305	3
0	3869	770.287441913756	2
0	3872	770.725323185207	1
0	3874	770.725323185207	0
0	3880	772.703184605219	1
0	3881	772.724172307078	0
0	3885	772.812996970175	1
0	3886	773.162053578529	0
0	3890	773.534849800755	1
0	3893	773.825450378981	0
0	3896	773.918358738017	1
0	3897	774.263331650432	0
0	3906	776.75266100257	1
0	3907	776.874735449019	0
0	3921	778.640730621624	1
0	3922	778.99902279824	0
0	3961	791.145151983992	1
0	3963	791.409328013091	2
0	3964	791.491740362173	1
0	3968	791.544795608794	2
0	3969	791.929621633624	1
0	3972	792.367502905075	0
0	3981	793.271269493349	1
0	3982	793.667357388755	0
0	3991	794.75411860672	1
0	3992	794.900457802816	0
0	4011	799.679143013238	1
0	4012	799.72793855575	0
0	4036	805.49717811998	1
0	4037	805.777563176781	0
0	4046	806.35815444326	1
0	4047	806.755647813597	0
0	4066	810.611078135107	1
0	4067	810.942056826899	0
0	4091	816.048431269797	1
0	4092	816.321037948479	0
0	4096	816.504243883751	1
0	4097	816.75891921993	0
0	4111	818.005211418215	1
0	4112	818.362760623785	0
0	4116	818.534514656374	1
0	4118	818.680238302754	2
0	4119	818.800641895236	1
0	4122	819.238523166687	0
0	4146	824.319190901254	1
0	4147	824.670824917098	0
0	4156	826.859179561399	1
0	4157	826.87413737917	0
0	4166	829.673051205956	1
0	4168	829.948576145405	2
0	4169	830.061864420558	1
0	4172	830.499745692009	0
0	4186	832.254768908783	1
0	4188	832.529978930329	2
0	4189	832.627949103025	1
0	4192	833.065830374476	0
0	4211	835.227897782108	1
0	4212	835.531883265949	0
0	4236	840.477972041098	1
0	4237	840.831204239424	0
0	4241	841.142841531293	1
0	4244	841.494601039876	0
0	4252	842.171424710066	1
0	4253	842.395323618055	0
0	4262	844.205169340991	1
0	4264	844.486386455857	2
0	4265	844.608733676623	1
0	4268	845.046614948074	0
0	4277	847.290751738244	1
0	4279	847.414427197594	2
0	4280	847.450760157632	1
0	4284	847.539698024092	2
0	4286	847.729441640435	3
0	4288	847.732164883851	4
0	4289	847.888641429083	3
0	4292	848.326522700534	2
0	4296	848.66674726718	3
0	4297	848.764403971985	2
0	4299	848.764403971985	1
0	4300	848.764403971985	0
0	4318	851.997892610754	1
0	4319	852.112597552288	0
0	4333	853.89872400199	1
0	4334	853.985865210419	0
0	4338	854.376777415795	1
0	4339	854.42374648187	0
0	4343	854.856397654526	1
0	4344	854.861627753321	0
0	4348	855.059021357205	1
0	4349	855.299509024772	0
0	4358	856.770399734317	1
0	4359	856.955623298299	0
0	4368	859.415965795784	1
0	4369	859.680129004815	0
0	4383	864.614099375392	1
0	4384	864.66905588417	0
0	4388	864.939179253503	1
0	4389	865.106937155621	0
0	4393	865.178880910153	1
0	4394	865.544818427072	0
0	4398	865.62268182598	1
0	4399	865.982699698523	0
0	4403	866.017090590514	1
0	4404	866.420580969974	0
0	4413	869.311587110025	1
0	4415	869.580625834912	2
0	4416	869.679601158303	1
0	4419	870.117482429754	0
0	4463	880.019672927341	1
0	4465	880.089913550919	2
0	4467	880.099962696995	3
0	4468	880.193704510011	2
0	4471	880.631585781462	1
0	4475	880.951727272003	2
0	4476	881.069467052913	1
0	4478	881.069467052913	0
0	4486	883.141117398219	1
0	4487	883.349553127207	0
0	4501	887.530378573324	1
0	4502	887.761431390108	0
0	4511	889.388212739078	1
0	4512	889.564843981197	0
0	4521	892.664758437688	1
0	4522	893.013702711482	0
0	4526	893.079455227415	1
0	4527	893.451583982933	0
0	4581	910.533444579261	1
0	4582	910.754900468711	0
0	4607	918.259045282864	1
0	4608	918.30679067987	0
0	4617	921.309791287726	1
0	4618	921.535122567304	0
0	4622	921.620058878562	1
0	4623	921.973003838755	0
0	4647	929.811009052037	1
0	4649	929.983315509393	2
0	4650	930.015439334009	1
0	4654	930.103336158012	2
0	4655	930.45332060546	1
0	4658	930.891201876911	0
0	4667	931.893713016673	1
0	4668	932.200487946559	0
0	4677	933.626049418404	1
0	4678	933.699524153388	0
0	4682	933.995619138281	1
0	4683	934.137405424839	0
0	4687	934.535836878266	1
0	4688	934.57528669629	0
0	4717	940.583938718742	1
0	4718	940.849179503359	0
0	4737	946.141130197234	1
0	4738	946.359154041922	0
0	4757	950.13039541706	1
0	4758	950.489963322659	0
0	4762	950.814123512753	1
0	4763	950.92784459411	0
0	4777	952.910058171923	1
0	4778	953.296574538696	0
0	4782	953.693954401739	1
0	4783	953.734455810147	0
0	4787	953.919492296359	1
0	4788	954.172337081598	0
0	4807	956.564729401072	1
0	4808	956.605588939036	0
0	4822	958.771284999035	1
0	4823	958.985238475962	0
0	4837	961.060236853902	1
0	4838	961.313412261655	0
0	4842	961.361642805683	1
0	4844	961.677309413114	2
0	4845	961.751293533106	1
0	4848	962.189174804557	0
0	4877	968.909199674886	1
0	4878	969.312556087966	0
0	4897	975.479406279681	1
0	4898	975.602878592484	0
0	4902	975.60556097104	1
0	4903	976.040759863935	0
0	4907	976.454509609885	1
0	4908	976.478641135386	0
0	4912	976.640758125814	1
0	4913	976.916522406837	0
0	4922	979.046834047775	1
0	4923	979.454902862313	0
0	4947	983.415412009935	1
0	4948	983.533910408855	0
1	5	2.44672033134	0.437881271451
1	10	4.09374569709	0.437881271451
1	21	4.920803652886	0.437881271451
1	24	5.358684924337	0.828528625844
1	31	5.796566195788	0.955788472458
1	35	6.234447467239	0.736329291696
1	38	6.67232873869	1.105253846712
1	43	9.285063960604	0.437881271451
1	50	10.8708834655	0.437881271451
1	53	11.308764736951	0.73116127365
1	58	13.891167565429	0.437881271451
1	67	15.765176880134	0.437881271451
1	72	16.203058151585	0.782941310268
1	75	16.640939423036	1.067843626449
1	78	17.078820694487	0.984766893148
1	87	17.69190768531	0.437881271451
1	92	18.129788956761	0.579757883845
1	97	18.567670228212	0.948705392457
1	100	19.005551499663	1.141318552664
1	105	19.443432771114	1.206896891869
1	108	19.881314042565	0.525301853167
1	115	22.561668415632	0.437881271451
1	118	22.999549687083	0.735345327658
1	123	24.270923394689	0.437881271451
1	128	24.726418401358	0.437881271451
1	133	26.935867659735	0.437881271451
1	138	27.831196791642	0.437881271451
1	143	29.158949478517	0.437881271451
1	150	31.258671824357	0.437881271451
1	153	31.696553095808	0.665749697506
1	158	32.652669932113	0.437881271451
1	165	36.367932725135	0.437881271451
1	168	36.805813996586	0.723091216429
1	173	37.986289097392	0.437881271451
1	180	38.454309891494	0.437881271451
1	183	38.892191162945	0.458701689906
1	188	40.058085820472	0.437881271451
1	195	40.813708265773	0.437881271451
1	198	41.251589537224	0.623932106172
1	203	42.369405732221	0.437881271451
1	210	44.68798864265	0.437881271451
1	213	45.125869914101	0.527451607265
1	222	46.212234958778	0.437881271451
1	227	46.650116230229	0.682859009318
1	230	47.08799750168	1.11361444669
1	233	47.525878773131	0.883391546732
1	240	48.064007468213	0.437881271451
1	243	48.501888739664	0.709521132406
1	250	52.278661884734	0.437881271451
1	253	52.716543156185	0.470289762296
1	258	54.64090624103	0.437881271451
1	263	55.169442125599	0.437881271451
1	270	55.872895820761	0.437881271451
1	273	56.310777092212	0.556868718999
1	280	56.847587469165	0.437881271451
1	283	57.285468740616	0.574222879868
1	288	60.325985287633	0.437881271451
1	295	64.996951807696	0.437881271451
1	300	65.434833079147	0.487149829752
1	305	65.872714350598	0.716395855167
1	308	66.310595622049	0.726771564097
1	313	67.479803255176	0.437881271451
1	320	67.955264453037	0.437881271451
1	323	68.393145724488	0.588288056537
1	328	70.047248367675	0.437881271451
1	335	72.620588105358	0.437881271451
1	338	73.058469376809	0.443234594259
1	343	74.313552714903	0.437881271451
1	348	75.98577519417	0.437881271451
1	355	76.737852583612	0.437881271451
1	359	77.401249384064	1.029975768639
1	366	77.880592503157	0.437881271451
1	371	78.318473774608	0.657099212999
1	374	78.756355046059	0.499120582152
1	379	79.710983565981	0.437881271451
1	384	80.293514935481	0.437881271451
1	389	81.610908059284	0.437881271451
1	396	83.06703709712	0.437881271451
1	399	83.504918368571	0.67017857542
1	406	84.011077770499	0.437881271451
1	409	84.44895904195	0.609875279276
1	414	85.635449984851	0.437881271451
1	423	87.682708164264	0.437881271451
1	428	88.120589435715	0.590860886582
1	433	88.558470707166	1.01656772436
1	436	88.996351978617	1.09208073407
1	439	89.434233250068	1.002418487406
1	444	92.728812114272	0.437881271451
1	449	94.176622778607	0.437881271451
1	454	94.832439002193	0.437881271451
1	459	95.281528644034	0.437881271451
1	466	96.994321479526	0.437881271451
1	469	97.432202750977	0.810938344329
1	474	98.027754744094	0.437881271451
1	479	99.270033977839	0.437881271451
1	484	99.940190978121	0.437881271451
1	489	101.451813912054	0.437881271451
1	496	102.329302575768	0.437881271451
1	501	102.767183847219	0.725202916517
1	504	103.20506511867	0.507060774
1	509	104.321634828641	0.437881271451
1	516	105.054951618994	0.437881271451
1	519	105.492832890445	0.564166867326
1	526	106.371385599356	0.437881271451
1	531	106.809266870807	0.460151308757
1	534	107.247148142258	0.494441395614
1	543	108.388293851471	0.437881271451
1	548	108.826175122922	0.632849082143
1	553	109.264056394373	1.059446349674
1	558	109.701937665824	1.063610771629
1	561	110.139818937275	0.976666602709
1	564	110.577700208726	1.158747309201
1	569	111.666265666026	0.437881271451
1	576	113.117981356795	0.437881271451
1	581	113.555862628246	0.832284123652
1	588	113.993743899697	0.78339336064
1	591	114.431625171148	0.604769080008
1	594	114.869506442599	0.937627013855
1	601	115.458874582721	0.437881271451
1	608	115.896755854172	0.607179360628
1	611	116.334637125623	0.729416968961
1	614	116.772518397074	1.060067333174
1	619	119.389944292948	0.437881271451
1	624	120.772718205892	0.437881271451
1	629	124.250303787547	0.437881271451
1	638	124.880804662378	0.437881271451
1	641	125.318685933829	0.798811405261
1	644	125.75656720528	1.184775282319
1	649	126.4756545244	0.437881271451
1	654	127.45896047439	0.437881271451
1	659	128.465541278447	0.437881271451
1	664	129.710147928421	0.437881271451
1	669	130.191252158435	0.437881271451
1	676	130.777793029284	0.437881271451
1	679	131.215674300735	0.480150795752
1	684	134.078019819371	0.437881271451
1	689	139.450354874866	0.437881271451
1	694	140.310017962408	0.437881271451
1	703	141.307737083055	0.437881271451
1	706	141.745618354506	0.761433475941
1	710	142.409015154958	1.181818770687
1	717	143.583790780114	0.437881271451
1	724	144.021672051565	0.753289737162
1	727	144.459553323016	0.810062233232
1	730	144.897434594467	0.969886626796
1	735	146.733874219592	0.437881271451
1	740	147.529905643836	0.437881271451
1	745	151.565274009569	0.437881271451
1	750	152.130188991543	0.437881271451
1	755	153.356571069937	0.437881271451
1	760	153.816693710779	0.437881271451
1	767	154.701743617324	0.437881271451
1	770	155.139624888775	0.557884792578
1	775	156.782584423476	0.437881271451
1	782	157.822799113353	0.437881271451
1	785	158.260680384804	0.667060863922
1	792	158.977936403831	0.437881271451
1	795	159.415817675282	0.506741426885
1	804	161.084216126635	0.437881271451
1	807	161.522097398086	0.815997170114
1	810	161.959978669537	1.190693276395
1	817	162.432432954494	0.437881271451
1	822	162.870314225945	0.708893137077
1	825	163.308195497396	0.796051260933
1	830	163.989662869002	0.437881271451
1	835	164.860767095845	0.437881271451
1	842	165.858773178006	0.437881271451
1	845	166.296654449457	0.857345479972
1	852	168.09772573506	0.437881271451
1	857	168.535607006511	0.580951191233
1	860	168.973488277962	0.622272583209
1	867	170.547960802207	0.437881271451
1	870	170.985842073658	0.613675226055
1	877	171.59733461797	0.437881271451
1	882	172.035215889421	0.459008007567
1	885	172.473097160872	0.681008028372
1	890	173.469588895277	0.437881271451
1	897	174.529246648394	0.437881271451
1	900	174.967127919845	0.530566819961
1	905	175.690451436012	0.437881271451
1	910	176.905567268555	0.437881271451
1	915	178.074550007176	0.437881271451
1	922	179.676985190158	0.437881271451
1	925	180.114866461609	0.86056343426
1	930	180.765494962596	0.437881271451
1	935	181.225841063941	0.437881271451
1	942	182.966851219142	0.437881271451
1	945	183.404732490593	0.788861897761
1	950	186.124701243869	0.437881271451
1	955	187.070025816523	0.437881271451
1	962	188.228651877689	0.437881271451
1	965	188.66653314914	0.526760852821
1	970	189.54038472436	0.437881271451
1	975	190.830296531568	0.437881271451
1	982	191.495336746602	0.437881271451
1	987	191.933218018053	0.814891299262
1	994	192.371099289504	0.441708545865
1	1001	192.808980560955	0.625494315595
1	1004	193.246861832406	1.006242518582
1	1011	193.684743103857	1.232088642926
1	1015	194.122624375308	0.85410507341
1	1018	194.560505646759	1.069498304018
1	1025	195.222366515685	0.437881271451
1	1028	195.660247787136	0.718850560585
1	1035	196.831949279645	0.437881271451
1	1040	197.269830551096	0.513751029862
1	1045	197.707711822547	0.771304313586
1	1048	198.145593093998	0.547027005033
1	1053	199.242473846748	0.437881271451
1	1058	200.231341954164	0.437881271451
1	1064	203.113059628192	0.437881271451
1	1071	203.671658771266	0.437881271451
1	1074	204.109540042717	0.830725813211
1	1079	204.682673123489	0.437881271451
1	1084	206.249100226207	0.437881271451
1	1091	207.528066718677	0.437881271451
1	1094	207.965947990128	0.763559836873
1	1103	209.085312762957	0.437881271451
1	1106	209.523194034408	0.667526822647
1	1111	209.961075305859	1.069540674984
1	1118	210.39895657731	0.868911193633
1	1121	210.836837848761	0.845457098503
1	1126	211.274719120212	1.166817306866
1	1131	211.712600391663	0.460955179392
1	1134	212.150481663114	0.72615671513
1	1139	213.292436603191	0.437881271451
1	1144	215.014885362927	0.437881271451
1	1149	215.79688083918	0.437881271451
1	1154	216.752761918215	0.437881271451
1	1159	217.667416771745	0.437881271451
1	1164	219.042348709495	0.437881271451
1	1171	219.874085611075	0.437881271451
1	1174	220.311966882526	0.595694721781
1	1179	220.959543823497	0.437881271451
1	1184	221.868639263827	0.437881271451
1	1189	223.661766539485	0.437881271451
1	1194	225.045782650619	0.437881271451
1	1199	225.698175178168	0.437881271451
1	1204	228.716681224667	0.437881271451
1	1211	229.375799285599	0.437881271451
1	1216	229.81368055705	0.78664099741
1	1219	230.251561828501	0.44338797645
1	1226	230.904655829955	0.437881271451
1	1229	231.342537101406	0.45068625995
1	1234	232.588427565127	0.437881271451
1	1239	233.485677329462	0.437881271451
1	1244	234.383551459555	0.437881271451
1	1249	234.988781260869	0.437881271451
1	1254	235.994415469842	0.437881271451
1	1259	238.836352567078	0.437881271451
1	1266	240.21607416326	0.437881271451
1	1269	240.653955434711	0.596990328593
1	1274	242.525430325341	0.437881271451
1	1283	244.213355373015	0.437881271451
1	1286	244.651236644466	0.871489755253
1	1289	245.089117915917	0.968974968386
1	1294	245.686466227417	0.437881271451
1	1299	246.13662343742	0.437881271451
1	1306	247.143201982401	0.437881271451
1	1309	247.581083253852	0.552846010074
1	1316	248.167708912036	0.437881271451
1	1319	248.605590183487	0.744606973919
1	1326	250.073261845509	0.437881271451
1	1329	250.51114311696	0.737971537959
1	1334	251.138555458	0.437881271451
1	1339	251.787465789213	0.437881271451
1	1346	252.466972313627	0.437881271451
1	1349	252.904853585078	0.664385293753
1	1354	253.910707563293	0.437881271451
1	1359	255.076542215681	0.437881271451
1	1364	256.58710582627	0.437881271451
1	1369	257.576453029333	0.437881271451
1	1374	258.172946614797	0.437881271451
1	1379	260.789811472682	0.437881271451
1	1386	261.35877130121	0.437881271451
1	1391	261.796652572661	0.732216457732
1	1394	262.234533844112	0.753263253332
1	1403	263.280179932173	0.437881271451
1	1406	263.718061203624	0.711812932633
1	1411	264.155942475075	1.139606365086
1	1415	264.819339275527	0.743137073192
1	1422	267.588465009638	0.437881271451
1	1425	268.026346281089	0.650653324557
1	1434	269.259592295567	0.437881271451
1	1437	269.697473567018	0.836885800324
1	1440	270.135354838469	1.270534484831
1	1445	271.429397894108	0.437881271451
1	1450	272.392841318741	0.437881271451
1	1455	273.955569001651	0.437881271451
1	1460	274.517673219607	0.437881271451
1	1467	276.575676736909	0.437881271451
1	1470	277.01355800836	0.527414607559
1	1475	278.302073964418	0.437881271451
1	1480	279.037653431898	0.437881271451
1	1487	281.392828610111	0.437881271451
1	1490	281.830709881562	0.709886502923
1	1495	283.402500184257	0.437881271451
1	1500	284.882881457001	0.437881271451
1	1505	286.660335197764	0.437881271451
1	1510	289.00084384455	0.437881271451
1	1515	289.655178549596	0.437881271451
1	1526	290.363493809876	0.437881271451
1	1529	290.801375081327	0.619581536774
1	1532	291.239256352778	0.932360653864
1	1538	292.361654272244	0.437881271451
1	1543	293.949315172078	0.437881271451
1	1550	295.175130329754	0.437881271451
1	1553	295.613011601205	0.643086082192
1	1558	297.297293502351	0.437881271451
1	1563	298.061271206667	0.437881271451
1	1568	299.56237315568	0.437881271451
1	1577	301.20795929496	0.437881271451
1	1580	301.645840566411	0.823067203249
1	1585	302.083721837862	1.069325383512
1	1588	302.521603109313	0.831209334631
1	1597	305.503428175757	0.437881271451
1	1602	305.941309447208	0.650260947164
1	1605	306.379190718659	0.899218857158
1	1608	306.81707199011	1.248777813272
1	1619	311.841853863273	0.437881271451
1	1622	312.279735134724	0.840422749013
1	1625	312.717616406175	1.206614980129
1	1631	318.829259545069	0.437881271451
1	1636	320.087824408841	0.437881271451
1	1641	321.471148048092	0.437881271451
1	1648	322.850056631333	0.437881271451
1	1653	323.287937902784	0.444814937006
1	1656	323.725819174235	0.850439422855
1	1661	324.41576664813	0.437881271451
1	1668	325.463990489806	0.437881271451
1	1671	325.901871761257	0.85873597229
1	1676	326.751790017084	0.437881271451
1	1683	330.438941595671	0.437881271451
1	1686	330.876822867122	0.77123037867
1	1691	332.459406523895	0.437881271451
1	1696	335.197346382633	0.437881271451
1	1701	335.728171323988	0.437881271451
1	1708	336.841221764551	0.437881271451
1	1711	337.279103036002	0.723254469005
1	1716	340.031401785421	0.437881271451
1	1721	342.187642793546	0.437881271451
1	1728	345.362220298029	0.437881271451
1	1731	345.80010156948	0.789559328008
1	1738	348.562840982273	0.437881271451
1	1741	349.000722253724	0.738974788982
1	1748	349.580892786572	0.437881271451
1	1751	350.018774058023	0.773360380875
1	1756	352.138703111246	0.437881271451
1	1761	353.007556118604	0.437881271451
1	1766	353.781155823024	0.437881271451
1	1772	354.878577212254	0.437881271451
1	1777	359.1777056151	0.437881271451
1	1784	359.833056264043	0.437881271451
1	1789	360.270937535494	0.740861644254
1	1792	360.708818806945	0.482269076255
1	1799	362.085501254853	0.437881271451
1	1802	362.523382526304	0.590229261351
1	1807	363.334523297253	0.437881271451
1	1812	366.047383358717	0.437881271451
1	1817	367.7566410862	0.437881271451
1	1822	369.100900543333	0.437881271451
1	1827	373.167301991066	0.437881271451
1	1834	374.026453950052	0.437881271451
1	1839	374.464335221503	0.780655084814
1	1844	374.902216492954	0.875513295115
1	1849	375.340097764405	0.724828601097
1	1854	375.777979035856	0.783039767686
1	1859	376.215860307307	0.520142709904
1	1866	376.653741578758	0.653300501483
1	1871	377.091622850209	0.67313141738
1	1874	377.52950412166	1.094909298351
1	1877	377.967385393111	1.145314288786
1	1882	378.580691633465	0.437881271451
1	1891	379.413385240522	0.437881271451
1	1894	379.851266511973	0.767959373334
1	1897	380.289147783424	1.077104798371
1	1902	381.292100520633	0.437881271451
1	1911	382.213921284218	0.437881271451
1	1914	382.651802555669	0.810530946441
1	1917	383.08968382712	1.07931542582
1	1924	383.539092247237	0.437881271451
1	1929	383.976973518688	0.789750747438
1	1934	384.414854790139	0.788927861288
1	1937	384.85273606159	0.660358243044
1	1944	386.975345800047	0.437881271451
1	1947	387.413227071498	0.648951889027
1	1952	387.983780271015	0.437881271451
1	1957	389.19023538004	0.437881271451
1	1962	390.017009108052	0.437881271451
1	1967	391.216210260799	0.437881271451
1	1976	393.196544626774	0.437881271451
1	1979	393.634425898225	0.787095384026
1	1982	394.072307169676	1.10872766997
1	1987	394.997330649806	0.437881271451
1	1994	395.531097887667	0.437881271451
1	1999	395.968979159118	0.681042637289
1	2002	396.406860430569	0.807577159281
1	2009	397.953931647133	0.437881271451
1	2012	398.391812918584	0.676466468943
1	2019	399.872256789437	0.437881271451
1	2022	400.310138060888	0.643182209216
1	2027	400.950920072355	0.437881271451
1	2032	406.370592694288	0.437881271451
1	2037	408.274409963481	0.437881271451
1	2042	409.074782402616	0.437881271451
1	2051	412.274859836466	0.437881271451
1	2054	412.712741107917	0.597557363848
1	2057	413.150622379368	0.935814222891
1	2066	413.905135641738	0.437881271451
1	2069	414.343016913189	0.858784350526
1	2072	414.78089818464	1.007230700576
1	2077	415.520853599785	0.437881271451
1	2084	416.744819915199	0.437881271451
1	2087	417.18270118665	0.502561991645
1	2092	417.892276575447	0.437881271451
1	2097	420.345987718369	0.437881271451
1	2104	421.942738796656	0.437881271451
1	2107	422.380620068107	0.860499764275
1	2112	423.861340936226	0.437881271451
1	2117	429.748806336408	0.437881271451
1	2123	430.41220313686	0.520106447829
1	2132	430.999464137685	0.437881271451
1	2135	431.437345409136	0.704480665577
1	2138	431.875226680587	1.049335928028
1	2143	432.820347548558	0.437881271451
1	2148	433.962993738095	0.437881271451
1	2157	434.509739688656	0.437881271451
1	2162	434.947620960107	0.726693386646
1	2167	435.385502231558	0.899681395427
1	2174	435.823383503009	1.016883323533
1	2177	436.26126477446	1.173549567023
1	2182	436.699146045911	1.277526832601
1	2186	437.137027317362	0.566237625525
1	2191	440.085802960386	0.437881271451
1	2198	443.285644678341	0.437881271451
1	2203	443.723525949792	0.535652048677
1	2206	444.161407221243	0.549050616944
1	2211	445.604273949477	0.437881271451
1	2218	447.714741577023	0.437881271451
1	2221	448.152622848474	0.829330689715
1	2226	448.711452117805	0.437881271451
1	2233	449.402587212706	0.437881271451
1	2240	449.840468484157	0.721898048669
1	2245	450.278349755608	0.855078931773
1	2248	450.716231027059	1.122154029932
1	2253	451.15411229851	0.952634357461
1	2256	451.591993569961	0.731236013363
1	2263	453.82544724749	0.437881271451
1	2266	454.263328518941	0.656462301476
1	2275	456.165466983355	0.437881271451
1	2278	456.603348254806	0.643647760305
1	2285	457.041229526257	0.901175351351
1	2292	457.479110797708	0.507968512739
1	2297	457.916992069159	0.884819274667
1	2302	458.35487334061	1.13456676377
1	2306	458.792754612061	1.008174398578
1	2309	459.230635883512	1.189507202855
1	2316	462.532514112575	0.437881271451
1	2319	462.970395384026	0.74737079838
1	2324	464.347883286616	0.437881271451
1	2329	465.442685184946	0.437881271451
1	2334	465.966860178312	0.437881271451
1	2339	467.148512969466	0.437881271451
1	2344	469.76228723115	0.437881271451
1	2349	470.393901470564	0.437881271451
1	2356	470.866110940635	0.437881271451
1	2359	471.303992212086	0.747937474818
1	2364	472.730115365759	0.437881271451
1	2369	474.571578724875	0.437881271451
1	2374	475.770752418906	0.437881271451
1	2379	476.50924423779	0.437881271451
1	2388	477.507993449125	0.437881271451
1	2391	477.945874720576	0.758232726907
1	2398	478.383755992027	0.94194552533
1	2403	478.821637263478	0.612336834522
1	2406	479.259518534929	1.043741531575
1	2409	479.69739980638	0.944310754018
1	2416	482.487875231895	0.437881271451
1	2419	482.925756503346	0.83985491493
1	2424	484.811737564638	0.437881271451
1	2431	485.947011181225	0.437881271451
1	2434	486.384892452676	0.695795315336
1	2441	487.419311890331	0.437881271451
1	2446	487.857193161782	0.78268765965
1	2449	488.295074433233	0.503254455915
1	2454	490.944676079228	0.437881271451
1	2459	492.903003844502	0.437881271451
1	2464	494.201530503679	0.437881271451
1	2469	495.839145728939	0.437881271451
1	2476	496.332937122233	0.437881271451
1	2482	496.996333922685	0.891640400696
1	2487	497.434215194136	0.735236011501
1	2492	497.872096465587	0.694930070348
1	2495	498.309977737038	0.656799715086
1	2500	500.168309990699	0.437881271451
1	2509	504.291687443931	0.437881271451
1	2512	504.729568715382	0.808648397969
1	2515	505.167449986833	1.09873090415
1	2520	506.901406619322	0.437881271451
1	2525	508.325622791125	0.437881271451
1	2530	509.247029989213	0.437881271451
1	2535	510.134202144172	0.437881271451
1	2540	511.255443967859	0.437881271451
1	2547	513.274574662486	0.437881271451
1	2550	513.712455933937	0.639241374174
1	2557	514.200061692802	0.437881271451
1	2562	514.637942964253	0.501606664119
1	2565	515.075824235704	0.846654211564
1	2572	516.223300191386	0.437881271451
1	2575	516.661181462837	0.473023035189
1	2580	517.557308564398	0.437881271451
1	2585	518.574787183798	0.437881271451
1	2592	519.137692795473	0.437881271451
1	2595	519.575574066924	0.536348243359
1	2602	520.347043746218	0.437881271451
1	2605	520.784925017669	0.552661851772
1	2610	521.875657095555	0.437881271451
1	2615	522.394965273112	0.437881271451
1	2622	527.997053354067	0.437881271451
1	2627	528.434934625518	0.817920802642
1	2630	528.872815896969	0.65675441696
1	2637	531.419183216114	0.437881271451
1	2640	531.857064487565	0.530194593493
1	2645	532.495878004068	0.437881271451
1	2652	533.704945330912	0.437881271451
1	2657	534.142826602363	0.769414723711
1	2660	534.580707873814	0.538853192135
1	2665	535.275491661838	0.437881271451
1	2670	536.376194299373	0.437881271451
1	2675	538.810406988376	0.437881271451
1	2680	540.065447983462	0.437881271451
1	2685	542.267673482807	0.437881271451
1	2692	542.903840443968	0.437881271451
1	2695	543.341721715419	0.855871933636
1	2702	543.794752408125	0.437881271451
1	2705	544.232633679576	0.866702591925
1	2710	545.632659537658	0.437881271451
1	2717	546.160891798104	0.437881271451
1	2720	546.598773069555	0.529484655976
1	2727	547.187264335626	0.437881271451
1	2730	547.625145607077	0.782599441688
1	2735	548.126182702736	0.437881271451
1	2740	548.770534564225	0.437881271451
1	2745	549.275862939261	0.437881271451
1	2752	549.773861793283	0.437881271451
1	2755	550.211743064734	0.467061092384
1	2760	551.215839657644	0.437881271451
1	2765	551.773931462989	0.437881271451
1	2772	552.357264509725	0.437881271451
1	2775	552.795145781176	0.759454730363
1	2782	554.123195668956	0.437881271451
1	2785	554.561076940407	0.81317621825
1	2790	555.243896102178	0.437881271451
1	2795	556.192041725723	0.437881271451
1	2800	557.127256785313	0.437881271451
1	2807	558.273072385054	0.437881271451
1	2812	558.710953656505	0.742502785232
1	2819	559.148834927956	0.6878000201
1	2822	559.586716199407	0.684377522754
1	2825	560.024597470858	1.018574859362
1	2833	563.345983650574	0.437881271451
1	2836	563.783864922025	0.779966197302
1	2843	566.721836357345	0.437881271451
1	2848	567.159717628796	0.626239886936
1	2851	567.597598900247	0.670540739415
1	2858	569.556171866742	0.437881271451
1	2863	569.994053138193	0.656458105717
1	2868	570.431934409644	0.645265144063
1	2871	570.869815681095	0.647928141983
1	2876	571.638198365123	0.437881271451
1	2881	574.138706911286	0.437881271451
1	2886	574.934543213565	0.437881271451
1	2893	577.628407044649	0.437881271451
1	2896	578.0662883161	0.716465969037
1	2901	579.177363859018	0.437881271451
1	2908	580.037880262671	0.437881271451
1	2915	580.475761534122	0.644986672307
1	2918	580.913642805573	0.547802284671
1	2923	581.351524077024	0.954234514673
1	2928	581.789405348475	0.662717387391
1	2931	582.227286619926	0.81941562667
1	2938	584.442244263462	0.437881271451
1	2941	584.880125534913	0.518090330854
1	2948	585.373780340164	0.437881271451
1	2951	585.811661611615	0.703941274586
1	2956	586.809139139454	0.437881271451
1	2961	588.216133539498	0.437881271451
1	2966	589.375375498317	0.437881271451
1	2973	590.426109281244	0.437881271451
1	2976	590.863990552695	0.442233311738
1	2981	591.542710647578	0.437881271451
1	2986	592.287893666941	0.437881271451
1	2991	596.634457180121	0.437881271451
1	3000	597.211142902327	0.437881271451
1	3003	597.649024173778	0.550121613695
1	3008	598.086905445229	0.982178399034
1	3011	598.52478671668	0.542780652033
1	3018	599.09175809012	0.437881271451
1	3021	599.529639361571	0.604398946933
1	3028	606.332020770062	0.437881271451
1	3033	606.769902041513	0.774299977349
1	3038	607.207783312964	0.761903823544
1	3045	607.645664584415	0.482297574684
1	3048	608.083545855866	0.694910947057
1	3051	608.521427127317	0.9655964659
1	3056	609.21940131589	0.437881271451
1	3065	610.264687389979	0.437881271451
1	3068	610.70256866143	0.661569965044
1	3075	611.140449932881	0.907692862414
1	3078	611.578331204332	0.725343343243
1	3081	612.016212475783	1.011783278638
1	3086	616.439191967079	0.437881271451
1	3091	616.991903853854	0.437881271451
1	3096	617.549197478276	0.437881271451
1	3103	618.797492400196	0.437881271451
1	3106	619.235373671647	0.612366589191
1	3111	619.823918216173	0.437881271451
1	3116	620.352265645985	0.437881271451
1	3123	621.899017088934	0.437881271451
1	3126	622.336898360385	0.811846590171
1	3131	622.80998315352	0.437881271451
1	3136	623.88339964778	0.437881271451
1	3141	624.667377195611	0.437881271451
1	3146	625.284037673884	0.437881271451
1	3151	625.776953075524	0.437881271451
1	3158	626.691050998974	0.437881271451
1	3161	627.128932270425	0.503983669218
1	3166	627.861199927424	0.437881271451
1	3171	629.817805142629	0.437881271451
1	3176	630.418732140704	0.437881271451
1	3182	631.197671412867	0.437881271451
1	3187	631.745925064147	0.437881271451
1	3192	636.272702394684	0.437881271451
1	3199	637.354202923431	0.437881271451
1	3202	637.792084194882	0.84730792008
1	3207	638.552317442722	0.437881271451
1	3212	640.869898102636	0.437881271451
1	3217	643.116310366891	0.437881271451
1	3222	645.721481564143	0.437881271451
1	3229	647.511174860264	0.437881271451
1	3232	647.949056131715	0.466060826285
1	3239	649.373722989701	0.437881271451
1	3244	649.811604261152	0.848305002409
1	3247	650.249485532603	0.69112583787
1	3258	651.425049470891	0.437881271451
1	3261	651.862930742342	0.686567286813
1	3264	652.300812013793	1.041631941705
1	3272	654.489011363875	0.437881271451
1	3277	654.926892635326	0.471616216311
1	3280	655.364773906777	0.721402221454
1	3287	657.07162951873	0.437881271451
1	3290	657.509510790181	0.851947732456
1	3295	658.72050902361	0.437881271451
1	3302	659.781306134114	0.437881271451
1	3305	660.219187405565	0.56366165407
1	3310	660.96884084842	0.437881271451
1	3317	663.313975707833	0.437881271451
1	3320	663.751856979284	0.567719690767
1	3325	666.396989183927	0.437881271451
1	3330	666.976287301224	0.437881271451
1	3339	668.475079737793	0.437881271451
1	3342	668.912961009244	0.606082384265
1	3345	669.350842280695	0.969883041326
1	3350	670.124894029974	0.437881271451
1	3355	670.659558392844	0.437881271451
1	3362	671.442575872526	0.437881271451
1	3367	671.880457143977	0.598500650503
1	3370	672.318338415428	0.597332878998
1	3375	672.91095483991	0.437881271451
1	3380	673.697256647716	0.437881271451
1	3385	674.266605957779	0.437881271451
1	3394	675.027404837913	0.437881271451
1	3397	675.465286109364	0.848039578837
1	3402	675.903167380815	1.142820846216
1	3405	676.341048652266	0.845056775618
1	3412	677.000623899839	0.437881271451
1	3415	677.43850517129	0.76054215936
1	3420	678.455034259601	0.437881271451
1	3425	680.450942211675	0.437881271451
1	3430	681.245135900051	0.437881271451
1	3437	681.714607791999	0.437881271451
1	3444	682.15248906345	0.74095614643
1	3447	682.590370334901	0.764950188989
1	3452	683.028251606352	0.890557740825
1	3457	683.466132877803	0.697333775365
1	3462	683.904014149254	0.442260955021
1	3465	684.341895420705	0.697589601318
1	3470	685.9825217462	0.437881271451
1	3475	687.306796279181	0.437881271451
1	3480	687.809471254926	0.437881271451
1	3485	688.660942280684	0.437881271451
1	3490	691.749745092266	0.437881271451
1	3495	692.910671334153	0.437881271451
1	3500	694.077111311767	0.437881271451
1	3507	697.046866517963	0.437881271451
1	3510	697.484747789414	0.730112699037
1	3515	698.300323026149	0.437881271451
1	3520	699.009913546454	0.437881271451
1	3525	699.510183160753	0.437881271451
1	3532	701.488189968949	0.437881271451
1	3536	702.151586769401	0.845039778909
1	3541	703.039565584503	0.437881271451
1	3546	704.190602459842	0.437881271451
1	3553	706.713452385335	0.437881271451
1	3558	707.151333656786	0.637769592208
1	3563	707.589214928237	0.773685093875
1	3566	708.027096199688	0.745900640731
1	3571	711.224689237336	0.437881271451
1	3576	713.264069400076	0.437881271451
1	3585	714.456819426171	0.437881271451
1	3588	714.894700697622	0.862821820079
1	3593	715.332581969073	1.020458574222
1	3600	715.770463240524	0.544400888931
1	3605	716.208344511975	0.73391640696
1	3612	716.646225783426	1.095902685626
1	3615	717.084107054877	1.092999445338
1	3620	717.521988326328	1.158623112392
1	3624	717.959869597779	0.685132707564
1	3629	719.449556815179	0.437881271451
1	3636	720.376071258703	0.437881271451
1	3639	720.813952530154	0.649286509689
1	3644	721.398548712386	0.437881271451
1	3649	722.005555743517	0.437881271451
1	3654	723.003447783512	0.437881271451
1	3659	724.159732749572	0.437881271451
1	3666	728.3253592104	0.437881271451
1	3669	728.763240481851	0.821200533222
1	3676	729.525438581516	0.437881271451
1	3681	729.963319852967	0.845257277786
1	3684	730.401201124418	0.595927066688
1	3691	730.948595969478	0.437881271451
1	3696	731.386477240929	0.864499236825
1	3701	731.82435851238	0.762239185848
1	3704	732.262239783831	0.571169786765
1	3709	733.680959745355	0.437881271451
1	3716	734.832082919569	0.437881271451
1	3721	735.26996419102	0.508445457928
1	3724	735.707845462471	0.639346504761
1	3731	736.350963856301	0.437881271451
1	3734	736.788845127752	0.45370273651
1	3741	737.543521408536	0.437881271451
1	3746	737.981402679987	0.77235660067
1	3749	738.419283951438	0.675737042003
1	3756	740.265941435431	0.437881271451
1	3759	740.703822706882	0.674669042033
1	3764	742.718916520736	0.437881271451
1	3771	743.793195413245	0.437881271451
1	3774	744.231076684696	0.672037463985
1	3779	745.177359057052	0.437881271451
1	3784	748.79380632304	0.437881271451
1	3791	749.617257923177	0.437881271451
1	3794	750.055139194628	0.485027243506
1	3801	751.269040108817	0.437881271451
1	3804	751.706921380268	0.750348637148
1	3813	754.234938986485	0.437881271451
1	3818	754.672820257936	0.600916782615
1	3821	755.110701529387	0.932283705403
1	3824	755.548582800838	0.915557648319
1	3829	758.837399263389	0.437881271451
1	3834	762.585005500813	0.437881271451
1	3839	764.740141147072	0.437881271451
1	3844	767.544988317239	0.437881271451
1	3849	768.834142952901	0.437881271451
1	3858	769.411679370854	0.437881271451
1	3867	769.849560642305	0.829280244832
1	3870	770.287441913756	1.144487106557
1	3873	770.725323185207	1.170478386822
1	3882	772.724172307078	0.437881271451
1	3887	773.162053578529	0.45886897331
1	3892	773.59993484998	0.786937879805
1	3898	774.263331650432	0.728481849677
1	3901	774.701212921883	0.782854183866
1	3908	776.874735449019	0.437881271451
1	3911	777.31261672047	0.5599557179
1	3916	778.481742433229	0.437881271451
1	3923	778.99902279824	0.437881271451
1	3926	779.436904069691	0.796173448067
1	3931	780.411686854298	0.437881271451
1	3936	784.108307183253	0.437881271451
1	3941	785.972954226771	0.437881271451
1	3946	786.632811988491	0.437881271451
1	3951	787.381602036832	0.437881271451
1	3956	788.369934103553	0.437881271451
1	3965	791.491740362173	0.437881271451
1	3970	791.929621633624	0.784469649632
1	3973	792.367502905075	0.958174891984
1	3976	792.805384176526	1.260588567732
1	3983	793.667357388755	0.437881271451
1	3986	794.105238660206	0.833969166857
1	3993	794.900457802816	0.437881271451
1	3996	795.338339074267	0.584220467547
1	4001	796.692066445286	0.437881271451
1	4006	797.567345317404	0.437881271451
1	4013	799.72793855575	0.437881271451
1	4016	800.165819827201	0.486676813963
1	4021	801.369109693568	0.437881271451
1	4026	802.259874560161	0.437881271451
1	4031	804.605364988593	0.437881271451
1	4038	805.777563176781	0.437881271451
1	4041	806.215444448232	0.718266328252
1	4048	806.755647813597	0.437881271451
1	4051	807.193529085048	0.835374641788
1	4056	809.677347397953	0.437881271451
1	4061	810.207120583052	0.437881271451
1	4068	810.942056826899	0.437881271451
1	4071	811.37993809835	0.768859963243
1	4076	813.697402708746	0.437881271451
1	4081	814.481551355877	0.437881271451
1	4086	815.11815172076	0.437881271451
1	4093	816.321037948479	0.437881271451
1	4098	816.75891921993	0.710487950133
1	4101	817.196800491381	0.69255660763
1	4106	817.665036327302	0.437881271451
1	4113	818.362760623785	0.437881271451
1	4120	818.800641895236	0.795430477021
1	4123	819.238523166687	0.704008510313
1	4126	819.676404438138	0.996166135384
1	4131	820.542353531279	0.437881271451
1	4136	822.257373384198	0.437881271451
1	4141	822.705949176817	0.437881271451
1	4148	824.670824917098	0.437881271451
1	4151	825.108706188549	0.789515287295
1	4158	826.87413737917	0.437881271451
1	4161	827.312018650621	0.452839089222
1	4170	830.061864420558	0.437881271451
1	4173	830.499745692009	0.826694486053
1	4176	830.93762696346	0.989050818055
1	4181	831.644791000788	0.437881271451
1	4190	832.627949103025	0.437881271451
1	4193	833.065830374476	0.811061465693
1	4196	833.503711645927	0.973732715598
1	4201	834.258778469981	0.437881271451
1	4206	834.987311261826	0.437881271451
1	4213	835.531883265949	0.437881271451
1	4216	835.9697645374	0.741866755292
1	4221	837.056999970465	0.437881271451
1	4226	839.130516866526	0.437881271451
1	4231	839.86635238359	0.437881271451
1	4238	840.831204239424	0.437881271451
1	4243	841.269085510875	0.791113469777
1	4247	841.932482311327	0.789640780034
1	4254	842.395323618055	0.437881271451
1	4257	842.833204889506	0.66178017944
1	4266	844.608733676623	0.437881271451
1	4269	845.046614948074	0.841445607083
1	4272	845.484496219525	0.998109763668
1	4281	847.450760157632	0.437881271451
1	4290	847.888641429083	0.597889690839
1	4293	848.326522700534	0.91209550294
1	4298	848.764403971985	1.224705947893
1	4303	849.202285243436	0.535537976256
1	4308	850.514144573738	0.437881271451
1	4313	851.621502804065	0.437881271451
1	4320	852.112597552288	0.437881271451
1	4323	852.550478823739	0.552586212985
1	4328	853.167429365988	0.437881271451
1	4335	853.985865210419	0.437881271451
1	4340	854.42374648187	0.52502247988
1	4345	854.861627753321	0.484850337526
1	4350	855.299509024772	0.443111370246
1	4353	855.737390296223	0.678368939018
1	4360	856.955623298299	0.437881271451
1	4363	857.39350456975	0.623104835433
1	4370	859.680129004815	0.437881271451
1	4373	860.118010276266	0.702044480482
1	4378	860.980144108915	0.437881271451
1	4385	864.66905588417	0.437881271451
1	4390	865.106937155621	0.492837780229
1	4395	865.544818427072	0.605639173569
1	4400	865.982699698523	0.80381878837
1	4405	866.420580969974	0.797899143994
1	4408	866.858462241425	0.841371650911
1	4417	869.679601158303	0.437881271451
1	4420	870.117482429754	0.805895319729
1	4423	870.555363701205	0.974737866293
1	4428	871.209537834778	0.437881271451
1	4433	872.533576887127	0.437881271451
1	4438	875.348879164629	0.437881271451
1	4443	876.216040783554	0.437881271451
1	4448	877.305886453941	0.437881271451
1	4453	878.899414929747	0.437881271451
1	4458	879.57790611544	0.437881271451
1	4469	880.193704510011	0.437881271451
1	4472	880.631585781462	0.611912854121
1	4477	881.069467052913	0.979553501994
1	4481	881.507348324364	0.555621052361
1	4488	883.349553127207	0.437881271451
1	4491	883.787434398658	0.646317000439
1	4496	884.531071623997	0.437881271451
1	4503	887.761431390108	0.437881271451
1	4506	888.199312661559	0.668934088235
1	4513	889.564843981197	0.437881271451
1	4516	890.002725252648	0.61451251357
1	4523	893.013702711482	0.437881271451
1	4528	893.451583982933	0.786825545245
1	4531	893.889465254384	0.810010026969
1	4536	896.022216598732	0.437881271451
1	4541	898.080426704456	0.437881271451
1	4546	901.491827048941	0.437881271451
1	4551	902.310072213321	0.437881271451
1	4556	903.704825811548	0.437881271451
1	4561	905.367450911624	0.437881271451
1	4566	908.405498419318	0.437881271451
1	4571	909.043401972879	0.437881271451
1	4576	909.70665643081	0.437881271451
1	4583	910.754900468711	0.437881271451
1	4586	911.192781740162	0.659337160901
1	4591	913.466298211535	0.437881271451
1	4596	915.814981670242	0.437881271451
1	4601	916.943483762642	0.437881271451
1	4609	918.30679067987	0.437881271451
1	4612	918.744671951321	0.485626668457
1	4619	921.535122567304	0.437881271451
1	4624	921.973003838755	0.663212551029
1	4627	922.410885110206	0.790826231644
1	4632	922.993864030311	0.437881271451
1	4637	927.608942752597	0.437881271451
1	4642	928.713723227359	0.437881271451
1	4651	930.015439334009	0.437881271451
1	4656	930.45332060546	0.642311553423
1	4659	930.891201876911	0.907886367518
1	4662	931.329083148362	1.22574699035
1	4669	932.200487946559	0.437881271451
1	4672	932.63836921801	0.744656201337
1	4679	933.699524153388	0.437881271451
1	4684	934.137405424839	0.511356006435
1	4689	934.57528669629	0.579667558009
1	4692	935.013167967741	0.477331089475
1	4697	935.606329292775	0.437881271451
1	4702	936.399291602198	0.437881271451
1	4707	936.956748826766	0.437881271451
1	4712	938.387894604734	0.437881271451
1	4719	940.849179503359	0.437881271451
1	4722	941.28706077481	0.703122056068
1	4727	944.046224549443	0.437881271451
1	4732	945.430034068011	0.437881271451
1	4739	946.359154041922	0.437881271451
1	4742	946.797035313373	0.655905116139
1	4747	949.570328639669	0.437881271451
1	4752	950.05056958644	0.437881271451
1	4759	950.489963322659	0.437881271451
1	4764	950.92784459411	0.79744917705
1	4767	951.365725865561	0.551602352808
1	4772	952.428474446253	0.437881271451
1	4779	953.296574538696	0.437881271451
1	4784	953.734455810147	0.824397638224
1	4789	954.172337081598	0.478382679859
1	4792	954.610218353049	0.69072605669
1	4797	955.354518178676	0.437881271451
1	4802	955.919002522296	0.437881271451
1	4809	956.605588939036	0.437881271451
1	4812	957.043470210487	0.478740809415
1	4817	957.974614107671	0.437881271451
1	4824	958.985238475962	0.437881271451
1	4827	959.423119747413	0.651834748378
1	4832	960.787821922811	0.437881271451
1	4839	961.313412261655	0.437881271451
1	4846	961.751293533106	0.691056679204
1	4849	962.189174804557	0.827531998874
1	4852	962.627056076008	0.949746662894
1	4857	964.454687209723	0.437881271451
1	4862	965.997954903371	0.437881271451
1	4867	966.692742931508	0.437881271451
1	4872	967.934029648014	0.437881271451
1	4879	969.312556087966	0.437881271451
1	4882	969.750437359417	0.841237684531
1	4887	971.850137333521	0.437881271451
1	4892	974.495356080923	0.437881271451
1	4899	975.602878592484	0.437881271451
1	4904	976.040759863935	0.561353584254
1	4909	976.478641135386	0.873080164346
1	4914	976.916522406837	0.462012796952
1	4917	977.354403678288	0.713645552474
1	4924	979.454902862313	0.437881271451
1	4927	979.892784133764	0.845950085989
1	4932	980.387651991125	0.437881271451
1	4937	981.202875587815	0.437881271451
1	4942	981.717997295278	0.437881271451
1	4949	983.533910408855	0.437881271451
1	4952	983.971791680306	0.556379670371
1	4958	984.664214165328	0.437881271451
1	4963	985.336524389488	0.437881271451
1	4968	987.234882323816	0.437881271451
1	4973	989.199299312597	0.437881271451
1	4978	990.828059833864	0.437881271451
1	4983	995.921223349716	0.437881271451
1	4988	997.593963433612	0.437881271451
1	4993	998.30617435893	0.437881271451
1	4998	998.941311652485	0.437881271451
2	5	2.44672033134	0
2	10	4.09374569709	0
2	21	4.920803652886	0
2	24	5.358684924337	0.390647354393
2	31	5.796566195788	0.517907201007
2	35	6.234447467239	0.298448020245
2	38	6.67232873869	0.667372575261
2	43	9.285063960604	0
2	50	10.8708834655	0
2	53	11.308764736951	0.293280002199
2	58	13.891167565429	0
2	67	15.765176880134	0
2	72	16.203058151585	0.345060038817
2	75	16.640939423036	0.629962354998
2	78	17.078820694487	0.546885621697
2	87	17.69190768531	0
2	92	18.129788956761	0.141876612394
2	97	18.567670228212	0.510824121006
2	100	19.005551499663	0.703437281213
2	105	19.443432771114	0.769015620418
2	108	19.881314042565	0.087420581716
2	115	22.561668415632	0
2	118	22.999549687083	0.297464056207
2	123	24.270923394689	0
2	128	24.726418401358	0
2	133	26.935867659735	0
2	138	27.831196791642	0
2	143	29.158949478517	0
2	150	31.258671824357	0
2	153	31.696553095808	0.227868426055
2	158	32.652669932113	0
2	165	36.367932725135	0
2	168	36.805813996586	0.285209944978
2	173	37.986289097392	0
2	180	38.454309891494	0
2	183	38.892191162945	0.020820418455
2	188	40.058085820472	0
2	195	40.813708265773	0
2	198	41.251589537224	0.186050834721
2	203	42.369405732221	0
2	210	44.68798864265	0
2	213	45.125869914101	0.089570335814
2	222	46.212234958778	0
2	227	46.650116230229	0.244977737867
2	230	47.08799750168	0.675733175239
2	233	47.525878773131	0.445510275281
2	240	48.064007468213	0
2	243	48.501888739664	0.271639860955
2	250	52.278661884734	0
2	253	52.716543156185	0.032408490845
2	258	54.64090624103	0
2	263	55.169442125599	0
2	270	55.872895820761	0
2	273	56.310777092212	0.118987447548
2	280	56.847587469165	0
2	283	57.285468740616	0.136341608417
2	288	60.325985287633	0
2	295	64.996951807696	0
2	300	65.434833079147	0.049268558301
2	305	65.872714350598	0.278514583716
2	308	66.310595622049	0.288890292646
2	313	67.479803255176	0
2	320	67.955264453037	0
2	323	68.393145724488	0.150406785086
2	328	70.047248367675	0
2	335	72.620588105358	0
2	338	73.058469376809	0.005353322808
2	343	74.313552714903	0
2	348	75.98577519417	0
2	355	76.737852583612	0
2	359	77.401249384064	0.592094497188
2	366	77.880592503157	0
2	371	78.318473774608	0.219217941548
2	374	78.756355046059	0.061239310701
2	379	79.710983565981	0
2	384	80.293514935481	0
2	389	81.610908059284	0
2	396	83.06703709712	0
2	399	83.504918368571	0.232297303969
2	406	84.011077770499	0
2	409	84.44895904195	0.171994007825
2	414	85.635449984851	0
2	423	87.682708164264	0
2	428	88.120589435715	0.152979615131
2	433	88.558470707166	0.578686452909
2	436	88.996351978617	0.654199462619
2	439	89.434233250068	0.564537215955
2	444	92.728812114272	0
2	449	94.176622778607	0
2	454	94.832439002193	0
2	459	95.281528644034	0
2	466	96.994321479526	0
2	469	97.432202750977	0.373057072878
2	474	98.027754744094	0
2	479	99.270033977839	0
2	484	99.940190978121	0
2	489	101.451813912054	0
2	496	102.329302575768	0
2	501	102.767183847219	0.287321645066
2	504	103.20506511867	0.069179502549
2	509	104.321634828641	0
2	516	105.054951618994	0
2	519	105.492832890445	0.126285595875
2	526	106.371385599356	0
2	531	106.809266870807	0.022270037306
2	534	107.247148142258	0.056560124163
2	543	108.388293851471	0
2	548	108.826175122922	0.194967810692
2	553	109.264056394373	0.621565078223
2	558	109.701937665824	0.625729500178
2	561	110.139818937275	0.538785331258
2	564	110.577700208726	0.72086603775
2	569	111.666265666026	0
2	576	113.117981356795	0
2	581	113.555862628246	0.394402852201
2	588	113.993743899697	0.345512089189
2	591	114.431625171148	0.166887808557
2	594	114.869506442599	0.499745742404
2	601	115.458874582721	0
2	608	115.896755854172	0.169298089177
2	611	116.334637125623	0.29153569751
2	614	116.772518397074	0.622186061723
2	619	119.389944292948	0
2	624	120.772718205892	0
2	629	124.250303787547	0
2	638	124.880804662378	0
2	641	125.318685933829	0.36093013381
2	644	125.75656720528	0.746894010868
2	649	126.4756545244	0
2	654	127.45896047439	0
2	659	128.465541278447	0
2	664	129.710147928421	0
2	669	130.191252158435	0
2	676	130.777793029284	0
2	679	131.215674300735	0.042269524301
2	684	134.078019819371	0
2	689	139.450354874866	0
2	694	140.310017962408	0
2	703	141.307737083055	0
2	706	141.745618354506	0.32355220449
2	710	142.409015154958	0.743937499236
2	717	143.583790780114	0
2	724	144.021672051565	0.315408465711
2	727	144.459553323016	0.372180961781
2	730	144.897434594467	0.532005355345
2	735	146.733874219592	0
2	740	147.529905643836	0
2	745	151.565274009569	0
2	750	152.130188991543	0
2	755	153.356571069937	0
2	760	153.816693710779	0
2	767	154.701743617324	0
2	770	155.139624888775	0.120003521127
2	775	156.782584423476	0
2	782	157.822799113353	0
2	785	158.260680384804	0.229179592471
2	792	158.977936403831	0
2	795	159.415817675282	0.068860155434
2	804	161.084216126635	0
2	807	161.522097398086	0.378115898663
2	810	161.959978669537	0.752812004944
2	817	162.432432954494	0
2	822	162.870314225945	0.271011865626
2	825	163.308195497396	0.358169989482
2	830	163.989662869002	0
2	835	164.860767095845	0
2	842	165.858773178006	0
2	845	166.296654449457	0.419464208521
2	852	168.09772573506	0
2	857	168.535607006511	0.143069919782
2	860	168.973488277962	0.184391311758
2	867	170.547960802207	0
2	870	170.985842073658	0.175793954604
2	877	171.59733461797	0
2	882	172.035215889421	0.021126736116
2	885	172.473097160872	0.243126756921
2	890	173.469588895277	0
2	897	174.529246648394	0
2	900	174.967127919845	0.09268554851
2	905	175.690451436012	0
2	910	176.905567268555	0
2	915	178.074550007176	0
2	922	179.676985190158	0
2	925	180.114866461609	0.422682162809
2	930	180.765494962596	0
2	935	181.225841063941	0
2	942	182.966851219142	0
2	945	183.404732490593	0.35098062631
2	950	186.124701243869	0
2	955	187.070025816523	0
2	962	188.228651877689	0
2	965	188.66653314914	0.08887958137
2	970	189.54038472436	0
2	975	190.830296531568	0
2	982	191.495336746602	0
2	987	191.933218018053	0.377010027811
2	994	192.371099289504	0.003827274414
2	1001	192.808980560955	0.187613044144
2	1004	193.246861832406	0.568361247131
2	1011	193.684743103857	0.794207371475
2	1015	194.122624375308	0.416223801959
2	1018	194.560505646759	0.631617032567
2	1025	195.222366515685	0
2	1028	195.660247787136	0.280969289134
2	1035	196.831949279645	0
2	1040	197.269830551096	0.075869758411
2	1045	197.707711822547	0.333423042135
2	1048	198.145593093998	0.109145733582
2	1053	199.242473846748	0
2	1058	200.231341954164	0
2	1064	203.113059628192	0
2	1071	203.671658771266	0
2	1074	204.109540042717	0.39284454176
2	1079	204.682673123489	0
2	1084	206.249100226207	0
2	1091	207.528066718677	0
2	1094	207.965947990128	0.325678565422
2	1103	209.085312762957	0
2	1106	209.523194034408	0.229645551196
2	1111	209.961075305859	0.631659403533
2	1118	210.39895657731	0.431029922182
2	1121	210.836837848761	0.407575827052
2	1126	211.274719120212	0.728936035415
2	1131	211.712600391663	0.023073907941
2	1134	212.150481663114	0.288275443679
2	1139	213.292436603191	0
2	1144	215.014885362927	0
2	1149	215.79688083918	0
2	1154	216.752761918215	0
2	1159	217.667416771745	0
2	1164	219.042348709495	0
2	1171	219.874085611075	0
2	1174	220.311966882526	0.15781345033
2	1179	220.959543823497	0
2	1184	221.868639263827	0
2	1189	223.661766539485	0
2	1194	225.045782650619	0
2	1199	225.698175178168	0
2	1204	228.716681224667	0
2	1211	229.375799285599	0
2	1216	229.81368055705	0.348759725959
2	1219	230.251561828501	0.005506704999
2	1226	230.904655829955	0
2	1229	231.342537101406	0.012804988499
2	1234	232.588427565127	0
2	1239	233.485677329462	0
2	1244	234.383551459555	0
2	1249	234.988781260869	0
2	1254	235.994415469842	0
2	1259	238.836352567078	0
2	1266	240.21607416326	0
2	1269	240.653955434711	0.159109057142
2	1274	242.525430325341	0
2	1283	244.213355373015	0
2	1286	244.651236644466	0.433608483802
2	1289	245.089117915917	0.531093696935
2	1294	245.686466227417	0
2	1299	246.13662343742	0
2	1306	247.143201982401	0
2	1309	247.581083253852	0.114964738623
2	1316	248.167708912036	0
2	1319	248.605590183487	0.306725702468
2	1326	250.073261845509	0
2	1329	250.51114311696	0.300090266508
2	1334	251.138555458	0
2	1339	251.787465789213	0
2	1346	252.466972313627	0
2	1349	252.904853585078	0.226504022302
2	1354	253.910707563293	0
2	1359	255.076542215681	0
2	1364	256.58710582627	0
2	1369	257.576453029333	0
2	1374	258.172946614797	0
2	1379	260.789811472682	0
2	1386	261.35877130121	0
2	1391	261.796652572661	0.294335186281
2	1394	262.234533844112	0.315381981881
2	1403	263.280179932173	0
2	1406	263.718061203624	0.273931661182
2	1411	264.155942475075	0.701725093635
2	1415	264.819339275527	0.305255801741
2	1422	267.588465009638	0
2	1425	268.026346281089	0.212772053106
2	1434	269.259592295567	0
2	1437	269.697473567018	0.399004528873
2	1440	270.135354838469	0.83265321338
2	1445	271.429397894108	0
2	1450	272.392841318741	0
2	1455	273.955569001651	0
2	1460	274.517673219607	0
2	1467	276.575676736909	0
2	1470	277.01355800836	0.089533336108
2	1475	278.302073964418	0
2	1480	279.037653431898	0
2	1487	281.392828610111	0
2	1490	281.830709881562	0.272005231472
2	1495	283.402500184257	0
2	1500	284.882881457001	0
2	1505	286.660335197764	0
2	1510	289.00084384455	0
2	1515	289.655178549596	0
2	1526	290.363493809876	0
2	1529	290.801375081327	0.181700265323
2	1532	291.239256352778	0.494479382413
2	1538	292.361654272244	0
2	1543	293.949315172078	0
2	1550	295.175130329754	0
2	1553	295.613011601205	0.205204810741
2	1558	297.297293502351	0
2	1563	298.061271206667	0
2	1568	299.56237315568	0
2	1577	301.20795929496	0
2	1580	301.645840566411	0.385185931798
2	1585	302.083721837862	0.631444112061
2	1588	302.521603109313	0.39332806318
2	1597	305.503428175757	0
2	1602	305.941309447208	0.212379675713
2	1605	306.379190718659	0.461337585707
2	1608	306.81707199011	0.810896541821
2	1619	311.841853863273	0
2	1622	312.279735134724	0.402541477562
2	1625	312.717616406175	0.768733708678
2	1631	318.829259545069	0
2	1636	320.087824408841	0
2	1641	321.471148048092	0
2	1648	322.850056631333	0
2	1653	323.287937902784	0.006933665555
2	1656	323.725819174235	0.412558151404
2	1661	324.41576664813	0
2	1668	325.463990489806	0
2	1671	325.901871761257	0.420854700839
2	1676	326.751790017084	0
2	1683	330.438941595671	0
2	1686	330.876822867122	0.333349107219
2	1691	332.459406523895	0
2	1696	335.197346382633	0
2	1701	335.728171323988	0
2	1708	336.841221764551	0
2	1711	337.279103036002	0.285373197554
2	1716	340.031401785421	0
2	1721	342.187642793546	0
2	1728	345.362220298029	0
2	1731	345.80010156948	0.351678056557
2	1738	348.562840982273	0
2	1741	349.000722253724	0.301093517531
2	1748	349.580892786572	0
2	1751	350.018774058023	0.335479109424
2	1756	352.138703111246	0
2	1761	353.007556118604	0
2	1766	353.781155823024	0
2	1772	354.878577212254	0
2	1777	359.1777056151	0
2	1784	359.833056264043	0
2	1789	360.270937535494	0.302980372803
2	1792	360.708818806945	0.044387804804
2	1799	362.085501254853	0
2	1802	362.523382526304	0.1523479899
2	1807	363.334523297253	0
2	1812	366.047383358717	0
2	1817	367.7566410862	0
2	1822	369.100900543333	0
2	1827	373.167301991066	0
2	1834	374.026453950052	0
2	1839	374.464335221503	0.342773813363
2	1844	374.902216492954	0.437632023664
2	1849	375.340097764405	0.286947329646
2	1854	375.777979035856	0.345158496235
2	1859	376.215860307307	0.082261438453
2	1866	376.653741578758	0.215419230032
2	1871	377.091622850209	0.235250145929
2	1874	377.52950412166	0.6570280269
2	1877	377.967385393111	0.707433017335
2	1882	378.580691633465	0
2	1891	379.413385240522	0
2	1894	379.851266511973	0.330078101883
2	1897	380.289147783424	0.63922352692
2	1902	381.292100520633	0
2	1911	382.213921284218	0
2	1914	382.651802555669	0.37264967499
2	1917	383.08968382712	0.641434154369
2	1924	383.539092247237	0
2	1929	383.976973518688	0.351869475987
2	1934	384.414854790139	0.351046589837
2	1937	384.85273606159	0.222476971593
2	1944	386.975345800047	0
2	1947	387.413227071498	0.211070617576
2	1952	387.983780271015	0
2	1957	389.19023538004	0
2	1962	390.017009108052	0
2	1967	391.216210260799	0
2	1976	393.196544626774	0
2	1979	393.634425898225	0.349214112575
2	1982	394.072307169676	0.670846398519
2	1987	394.997330649806	0
2	1994	395.531097887667	0
2	1999	395.968979159118	0.243161365838
2	2002	396.406860430569	0.36969588783
2	2009	397.953931647133	0
2	2012	398.391812918584	0.238585197492
2	2019	399.872256789437	0
2	2022	400.310138060888	0.205300937765
2	2027	400.950920072355	0
2	2032	406.370592694288	0
2	2037	408.274409963481	0
2	2042	409.074782402616	0
2	2051	412.274859836466	0
2	2054	412.712741107917	0.159676092397
2	2057	413.150622379368	0.49793295144
2	2066	413.905135641738	0
2	2069	414.343016913189	0.420903079075
2	2072	414.78089818464	0.569349429125
2	2077	415.520853599785	0
2	2084	416.744819915199	0
2	2087	417.18270118665	0.064680720194
2	2092	417.892276575447	0
2	2097	420.345987718369	0
2	2104	421.942738796656	0
2	2107	422.380620068107	0.422618492824
2	2112	423.861340936226	0
2	2117	429.748806336408	0
2	2123	430.41220313686	0.082225176378
2	2132	430.999464137685	0
2	2135	431.437345409136	0.266599394126
2	2138	431.875226680587	0.611454656577
2	2143	432.820347548558	0
2	2148	433.962993738095	0
2	2157	434.509739688656	0
2	2162	434.947620960107	0.288812115195
2	2167	435.385502231558	0.461800123976
2	2174	435.823383503009	0.579002052082
2	2177	436.26126477446	0.735668295572
2	2182	436.699146045911	0.83964556115
2	2186	437.137027317362	0.128356354074
2	2191	440.085802960386	0
2	2198	443.285644678341	0
2	2203	443.723525949792	0.097770777226
2	2206	444.161407221243	0.111169345493
2	2211	445.604273949477	0
2	2218	447.714741577023	0
2	2221	448.152622848474	0.391449418264
2	2226	448.711452117805	0
2	2233	449.402587212706	0
2	2240	449.840468484157	0.284016777218
2	2245	450.278349755608	0.417197660322
2	2248	450.716231027059	0.684272758481
2	2253	451.15411229851	0.51475308601
2	2256	451.591993569961	0.293354741912
2	2263	453.82544724749	0
2	2266	454.263328518941	0.218581030025
2	2275	456.165466983355	0
2	2278	456.603348254806	0.205766488854
2	2285	457.041229526257	0.4632940799
2	2292	457.479110797708	0.070087241288
2	2297	457.916992069159	0.446938003216
2	2302	458.35487334061	0.696685492319
2	2306	458.792754612061	0.570293127127
2	2309	459.230635883512	0.751625931404
2	2316	462.532514112575	0
2	2319	462.970395384026	0.309489526929
2	2324	464.347883286616	0
2	2329	465.442685184946	0
2	2334	465.966860178312	0
2	2339	467.148512969466	0
2	2344	469.76228723115	0
2	2349	470.393901470564	0
2	2356	470.866110940635	0
2	2359	471.303992212086	0.310056203367
2	2364	472.730115365759	0
2	2369	474.571578724875	0
2	2374	475.770752418906	0
2	2379	476.50924423779	0
2	2388	477.507993449125	0
2	2391	477.945874720576	0.320351455456
2	2398	478.383755992027	0.504064253879
2	2403	478.821637263478	0.174455563071
2	2406	479.259518534929	0.605860260124
2	2409	479.69739980638	0.506429482567
2	2416	482.487875231895	0
2	2419	482.925756503346	0.401973643479
2	2424	484.811737564638	0
2	2431	485.947011181225	0
2	2434	486.384892452676	0.257914043885
2	2441	487.419311890331	0
2	2446	487.857193161782	0.344806388199
2	2449	488.295074433233	0.065373184464
2	2454	490.944676079228	0
2	2459	492.903003844502	0
2	2464	494.201530503679	0
2	2469	495.839145728939	0
2	2476	496.332937122233	0
2	2482	496.996333922685	0.453759129245
2	2487	497.434215194136	0.29735474005
2	2492	497.872096465587	0.257048798897
2	2495	498.309977737038	0.218918443635
2	2500	500.168309990699	0
2	2509	504.291687443931	0
2	2512	504.729568715382	0.370767126518
2	2515	505.167449986833	0.660849632699
2	2520	506.901406619322	0
2	2525	508.325622791125	0
2	2530	509.247029989213	0
2	2535	510.134202144172	0
2	2540	511.255443967859	0
2	2547	513.274574662486	0
2	2550	513.712455933937	0.201360102723
2	2557	514.200061692802	0
2	2562	514.637942964253	0.063725392668
2	2565	515.075824235704	0.408772940113
2	2572	516.223300191386	0
2	2575	516.661181462837	0.035141763738
2	2580	517.557308564398	0
2	2585	518.574787183798	0
2	2592	519.137692795473	0
2	2595	519.575574066924	0.098466971908
2	2602	520.347043746218	0
2	2605	520.784925017669	0.114780580321
2	2610	521.875657095555	0
2	2615	522.394965273112	0
2	2622	527.997053354067	0
2	2627	528.434934625518	0.380039531191
2	2630	528.872815896969	0.218873145509
2	2637	531.419183216114	0
2	2640	531.857064487565	0.092313322042
2	2645	532.495878004068	0
2	2652	533.704945330912	0
2	2657	534.142826602363	0.33153345226
2	2660	534.580707873814	0.100971920684
2	2665	535.275491661838	0
2	2670	536.376194299373	0
2	2675	538.810406988376	0
2	2680	540.065447983462	0
2	2685	542.267673482807	0
2	2692	542.903840443968	0
2	2695	543.341721715419	0.417990662185
2	2702	543.794752408125	0
2	2705	544.232633679576	0.428821320474
2	2710	545.632659537658	0
2	2717	546.160891798104	0
2	2720	546.598773069555	0.091603384525
2	2727	547.187264335626	0
2	2730	547.625145607077	0.344718170237
2	2735	548.126182702736	0
2	2740	548.770534564225	0
2	2745	549.275862939261	0
2	2752	549.773861793283	0
2	2755	550.211743064734	0.029179820933
2	2760	551.215839657644	0
2	2765	551.773931462989	0
2	2772	552.357264509725	0
2	2775	552.795145781176	0.321573458912
2	2782	554.123195668956	0
2	2785	554.561076940407	0.375294946799
2	2790	555.243896102178	0
2	2795	556.192041725723	0
2	2800	557.127256785313	0
2	2807	558.273072385054	0
2	2812	558.710953656505	0.304621513781
2	2819	559.148834927956	0.249918748649
2	2822	559.586716199407	0.246496251303
2	2825	560.024597470858	0.580693587911
2	2833	563.345983650574	0
2	2836	563.783864922025	0.342084925851
2	2843	566.721836357345	0
2	2848	567.159717628796	0.188358615485
2	2851	567.597598900247	0.232659467964
2	2858	569.556171866742	0
2	2863	569.994053138193	0.218576834266
2	2868	570.431934409644	0.207383872612
2	2871	570.869815681095	0.210046870532
2	2876	571.638198365123	0
2	2881	574.138706911286	0
2	2886	574.934543213565	0
2	2893	577.628407044649	0
2	2896	578.0662883161	0.278584697586
2	2901	579.177363859018	0
2	2908	580.037880262671	0
2	2915	580.475761534122	0.207105400856
2	2918	580.913642805573	0.10992101322
[...]
7	4345	854.861627753321	0
7	4350	855.299509024772	0
7	4353	855.737390296223	0
7	4360	856.955623298299	0
7	4363	857.39350456975	0
7	4370	859.680129004815	0
7	4373	860.118010276266	0
7	4378	860.980144108915	0
7	4385	864.66905588417	0
7	4390	865.106937155621	0
7	4395	865.544818427072	0
7	4400	865.982699698523	0
7	4405	866.420580969974	0
7	4408	866.858462241425	0
7	4417	869.679601158303	0
7	4420	870.117482429754	0
7	4423	870.555363701205	0
7	4428	871.209537834778	0
7	4433	872.533576887127	0
7	4438	875.348879164629	0
7	4443	876.216040783554	0
7	4448	877.305886453941	0
7	4453	878.899414929747	0
7	4458	879.57790611544	0
7	4469	880.193704510011	0
7	4472	880.631585781462	0
7	4477	881.069467052913	0
7	4481	881.507348324364	0
7	4488	883.349553127207	0
7	4491	883.787434398658	0
7	4496	884.531071623997	0
7	4503	887.761431390108	0
7	4506	888.199312661559	0
7	4513	889.564843981197	0
7	4516	890.002725252648	0
7	4523	893.013702711482	0
7	4528	893.451583982933	0
7	4531	893.889465254384	0
7	4536	896.022216598732	0
7	4541	898.080426704456	0
7	4546	901.491827048941	0
7	4551	902.310072213321	0
7	4556	903.704825811548	0
7	4561	905.367450911624	0
7	4566	908.405498419318	0
7	4571	909.043401972879	0
7	4576	909.70665643081	0
7	4583	910.754900468711	0
7	4586	911.192781740162	0
7	4591	913.466298211535	0
7	4596	915.814981670242	0
7	4601	916.943483762642	0
7	4609	918.30679067987	0
7	4612	918.744671951321	0
7	4619	921.535122567304	0
7	4624	921.973003838755	0
7	4627	922.410885110206	0
7	4632	922.993864030311	0
7	4637	927.608942752597	0
7	4642	928.713723227359	0
7	4651	930.015439334009	0
7	4656	930.45332060546	0
7	4659	930.891201876911	0
7	4662	931.329083148362	0
7	4669	932.200487946559	0
7	4672	932.63836921801	0
7	4679	933.699524153388	0
7	4684	934.137405424839	0
7	4689	934.57528669629	0
7	4692	935.013167967741	0
7	4697	935.606329292775	0
7	4702	936.399291602198	0
7	4707	936.956748826766	0
7	4712	938.387894604734	0
7	4719	940.849179503359	0
7	4722	941.28706077481	0
7	4727	944.046224549443	0
7	4732	945.430034068011	0
7	4739	946.359154041922	0
7	4742	946.797035313373	0
7	4747	949.570328639669	0
7	4752	950.05056958644	0
7	4759	950.489963322659	0
7	4764	950.92784459411	0
7	4767	951.365725865561	0
7	4772	952.428474446253	0
7	4779	953.296574538696	0
7	4784	953.734455810147	0
7	4789	954.172337081598	0
7	4792	954.610218353049	0
7	4797	955.354518178676	0
7	4802	955.919002522296	0
7	4809	956.605588939036	0
7	4812	957.043470210487	0
7	4817	957.974614107671	0
7	4824	958.985238475962	0
7	4827	959.423119747413	0
7	4832	960.787821922811	0
7	4839	961.313412261655	0
7	4846	961.751293533106	0
7	4849	962.189174804557	0
7	4852	962.627056076008	0
7	4857	964.454687209723	0
7	4862	965.997954903371	0
7	4867	966.692742931508	0
7	4872	967.934029648014	0
7	4879	969.312556087966	0
7	4882	969.750437359417	0
7	4887	971.850137333521	0
7	4892	974.495356080923	0
7	4899	975.602878592484	0
7	4904	976.040759863935	0
7	4909	976.478641135386	0
7	4914	976.916522406837	0
7	4917	977.354403678288	0
7	4924	979.454902862313	0
7	4927	979.892784133764	0
7	4932	980.387651991125	0
7	4937	981.202875587815	0
7	4942	981.717997295278	0
7	4949	983.533910408855	0
7	4952	983.971791680306	0
7	4958	984.664214165328	0
7	4963	985.336524389488	0
7	4968	987.234882323816	0
7	4973	989.199299312597	0
7	4978	990.828059833864	0
7	4983	995.921223349716	0
7	4988	997.593963433612	0
7	4993	998.30617435893	0
7	4998	998.941311652485	0
8	20	4.920803652886	0.390647354393
8	23	5.358684924337	0.517907201007
8	30	5.796566195788	0.902647306116
8	32	5.796566195788	0.298448020245
8	34	6.234447467239	0.667372575261
8	49	10.8708834655	0.293280002199
8	66	15.765176880134	0.345060038817
8	71	16.203058151585	0.629962354998
8	74	16.640939423036	0.546885621697
8	86	17.69190768531	0.141876612394
8	91	18.129788956761	0.510824121006
8	96	18.567670228212	0.703437281213
8	99	19.005551499663	0.769015620418
8	104	19.443432771114	0.087420581716
8	114	22.561668415632	0.297464056207
8	149	31.258671824357	0.227868426055
8	164	36.367932725135	0.285209944978
8	179	38.454309891494	0.020820418455
8	194	40.813708265773	0.186050834721
8	209	44.68798864265	0.089570335814
8	221	46.212234958778	0.244977737867
8	226	46.650116230229	0.675733175239
8	229	47.08799750168	0.445510275281
8	239	48.064007468213	0.271639860955
8	249	52.278661884734	0.032408490845
8	269	55.872895820761	0.118987447548
8	279	56.847587469165	0.136341608417
8	294	64.996951807696	0.049268558301
8	299	65.434833079147	0.278514583716
8	304	65.872714350598	0.288890292646
8	319	67.955264453037	0.150406785086
8	334	72.620588105358	0.005353322808
8	356	76.963368112613	0.592094497188
8	365	77.880592503157	0.219217941548
8	370	78.318473774608	0.061239310701
8	395	83.06703709712	0.232297303969
8	405	84.011077770499	0.171994007825
8	422	87.682708164264	0.152979615131
8	427	88.120589435715	0.578686452909
8	432	88.558470707166	0.654199462619
8	435	88.996351978617	0.564537215955
8	465	96.994321479526	0.373057072878
8	495	102.329302575768	0.287321645066
8	500	102.767183847219	0.069179502549
8	515	105.054951618994	0.126285595875
8	525	106.371385599356	0.022270037306
8	530	106.809266870807	0.056560124163
8	542	108.388293851471	0.194967810692
8	547	108.826175122922	0.621565078223
8	552	109.264056394373	0.625729500178
8	557	109.701937665824	0.538785331258
8	560	110.139818937275	0.72086603775
8	575	113.117981356795	0.394402852201
8	580	113.555862628246	0.345512089189
8	587	113.993743899697	0.166887808557
8	590	114.431625171148	0.499745742404
8	600	115.458874582721	0.169298089177
8	607	115.896755854172	0.29153569751
8	610	116.334637125623	0.622186061723
8	637	124.880804662378	0.36093013381
8	640	125.318685933829	0.746894010868
8	675	130.777793029284	0.042269524301
8	702	141.307737083055	0.32355220449
8	707	141.971133883507	0.743937499236
8	716	143.583790780114	0.315408465711
8	723	144.021672051565	0.372180961781
8	726	144.459553323016	0.532005355345
8	766	154.701743617324	0.120003521127
8	781	157.822799113353	0.229179592471
8	791	158.977936403831	0.068860155434
8	803	161.084216126635	0.378115898663
8	806	161.522097398086	0.752812004944
8	816	162.432432954494	0.271011865626
8	821	162.870314225945	0.358169989482
8	841	165.858773178006	0.419464208521
8	851	168.09772573506	0.143069919782
8	856	168.535607006511	0.184391311758
8	866	170.547960802207	0.175793954604
8	876	171.59733461797	0.021126736116
8	881	172.035215889421	0.243126756921
8	896	174.529246648394	0.09268554851
8	921	179.676985190158	0.422682162809
8	941	182.966851219142	0.35098062631
8	961	188.228651877689	0.08887958137
8	981	191.495336746602	0.377010027811
8	986	191.933218018053	0.003827274414
8	993	192.371099289504	0.187613044144
8	1000	192.808980560955	0.568361247131
8	1003	193.246861832406	0.794207371475
8	1010	193.684743103857	1.012843418465
8	1012	193.684743103857	0.416223801959
8	1014	194.122624375308	0.631617032567
8	1024	195.222366515685	0.280969289134
8	1034	196.831949279645	0.075869758411
8	1039	197.269830551096	0.333423042135
8	1044	197.707711822547	0.109145733582
8	1070	203.671658771266	0.39284454176
8	1090	207.528066718677	0.325678565422
8	1102	209.085312762957	0.229645551196
8	1105	209.523194034408	0.631659403533
8	1110	209.961075305859	0.431029922182
8	1117	210.39895657731	0.407575827052
8	1120	210.836837848761	0.728936035415
8	1125	211.274719120212	0.023073907941
8	1130	211.712600391663	0.288275443679
8	1170	219.874085611075	0.15781345033
8	1210	229.375799285599	0.348759725959
8	1215	229.81368055705	0.005506704999
8	1225	230.904655829955	0.012804988499
8	1265	240.21607416326	0.159109057142
8	1282	244.213355373015	0.433608483802
8	1285	244.651236644466	0.531093696935
8	1305	247.143201982401	0.114964738623
8	1315	248.167708912036	0.306725702468
8	1325	250.073261845509	0.300090266508
8	1345	252.466972313627	0.226504022302
8	1385	261.35877130121	0.294335186281
8	1390	261.796652572661	0.315381981881
8	1402	263.280179932173	0.273931661182
8	1405	263.718061203624	0.701725093635
8	1412	264.381458004076	0.305255801741
8	1421	267.588465009638	0.212772053106
8	1433	269.259592295567	0.399004528873
8	1436	269.697473567018	0.83265321338
8	1466	276.575676736909	0.089533336108
8	1486	281.392828610111	0.272005231472
8	1525	290.363493809876	0.181700265323
8	1528	290.801375081327	0.494479382413
8	1531	291.239256352778	0.884508196285
8	1549	295.175130329754	0.205204810741
8	1576	301.20795929496	0.385185931798
8	1579	301.645840566411	0.631444112061
8	1584	302.083721837862	0.39332806318
8	1596	305.503428175757	0.212379675713
8	1601	305.941309447208	0.461337585707
8	1604	306.379190718659	0.810896541821
8	1618	311.841853863273	0.402541477562
8	1621	312.279735134724	0.768733708678
8	1624	312.717616406175	1.142868541776
8	1647	322.850056631333	0.006933665555
8	1652	323.287937902784	0.412558151404
8	1667	325.463990489806	0.420854700839
8	1682	330.438941595671	0.333349107219
8	1707	336.841221764551	0.285373197554
8	1727	345.362220298029	0.351678056557
8	1737	348.562840982273	0.301093517531
8	1747	349.580892786572	0.335479109424
8	1783	359.833056264043	0.302980372803
8	1788	360.270937535494	0.044387804804
8	1798	362.085501254853	0.1523479899
8	1833	374.026453950052	0.342773813363
8	1838	374.464335221503	0.437632023664
8	1843	374.902216492954	0.286947329646
8	1848	375.340097764405	0.345158496235
8	1853	375.777979035856	0.082261438453
8	1858	376.215860307307	0.215419230032
8	1865	376.653741578758	0.235250145929
8	1870	377.091622850209	0.6570280269
8	1873	377.52950412166	0.707433017335
8	1890	379.413385240522	0.330078101883
8	1893	379.851266511973	0.63922352692
8	1910	382.213921284218	0.37264967499
8	1913	382.651802555669	0.641434154369
8	1923	383.539092247237	0.351869475987
8	1928	383.976973518688	0.351046589837
8	1933	384.414854790139	0.222476971593
8	1943	386.975345800047	0.211070617576
8	1975	393.196544626774	0.349214112575
8	1978	393.634425898225	0.670846398519
8	1993	395.531097887667	0.243161365838
8	1998	395.968979159118	0.36969588783
8	2008	397.953931647133	0.238585197492
8	2018	399.872256789437	0.205300937765
8	2050	412.274859836466	0.159676092397
8	2053	412.712741107917	0.49793295144
8	2065	413.905135641738	0.420903079075
8	2068	414.343016913189	0.569349429125
8	2083	416.744819915199	0.064680720194
8	2103	421.942738796656	0.422618492824
8	2120	429.974321865409	0.082225176378
8	2131	430.999464137685	0.266599394126
8	2134	431.437345409136	0.611454656577
8	2156	434.509739688656	0.288812115195
8	2161	434.947620960107	0.461800123976
8	2166	435.385502231558	0.579002052082
8	2173	435.823383503009	0.735668295572
8	2176	436.26126477446	0.83964556115
8	2181	436.699146045911	0.959258939558
8	2183	436.699146045911	0.128356354074
8	2197	443.285644678341	0.097770777226
8	2202	443.723525949792	0.111169345493
8	2217	447.714741577023	0.391449418264
8	2232	449.402587212706	0.284016777218
8	2239	449.840468484157	0.417197660322
8	2244	450.278349755608	0.684272758481
8	2247	450.716231027059	0.51475308601
8	2252	451.15411229851	0.293354741912
8	2262	453.82544724749	0.218581030025
8	2274	456.165466983355	0.205766488854
8	2277	456.603348254806	0.4632940799
8	2284	457.041229526257	0.070087241288
8	2291	457.479110797708	0.446938003216
8	2296	457.916992069159	0.696685492319
8	2301	458.35487334061	0.894130491453
8	2303	458.35487334061	0.570293127127
8	2305	458.792754612061	0.751625931404
8	2315	462.532514112575	0.309489526929
8	2355	470.866110940635	0.310056203367
8	2387	477.507993449125	0.320351455456
8	2390	477.945874720576	0.504064253879
8	2397	478.383755992027	0.174455563071
8	2402	478.821637263478	0.605860260124
8	2405	479.259518534929	0.506429482567
8	2415	482.487875231895	0.401973643479
8	2430	485.947011181225	0.257914043885
8	2440	487.419311890331	0.344806388199
8	2445	487.857193161782	0.065373184464
8	2477	496.558452651234	0.453759129245
8	2481	496.996333922685	0.29735474005
8	2486	497.434215194136	0.257048798897
8	2491	497.872096465587	0.218918443635
8	2508	504.291687443931	0.370767126518
8	2511	504.729568715382	0.660849632699
8	2546	513.274574662486	0.201360102723
8	2556	514.200061692802	0.063725392668
8	2561	514.637942964253	0.408772940113
8	2571	516.223300191386	0.035141763738
8	2591	519.137692795473	0.098466971908
8	2601	520.347043746218	0.114780580321
8	2621	527.997053354067	0.380039531191
8	2626	528.434934625518	0.218873145509
8	2636	531.419183216114	0.092313322042
8	2651	533.704945330912	0.33153345226
8	2656	534.142826602363	0.100971920684
8	2691	542.903840443968	0.417990662185
8	2701	543.794752408125	0.428821320474
8	2716	546.160891798104	0.091603384525
8	2726	547.187264335626	0.344718170237
8	2751	549.773861793283	0.029179820933
8	2771	552.357264509725	0.321573458912
8	2781	554.123195668956	0.375294946799
8	2806	558.273072385054	0.304621513781
8	2811	558.710953656505	0.249918748649
8	2818	559.148834927956	0.246496251303
8	2821	559.586716199407	0.580693587911
8	2832	563.345983650574	0.342084925851
8	2842	566.721836357345	0.188358615485
8	2847	567.159717628796	0.232659467964
8	2857	569.556171866742	0.218576834266
8	2862	569.994053138193	0.207383872612
8	2867	570.431934409644	0.210046870532
8	2892	577.628407044649	0.278584697586
8	2907	580.037880262671	0.207105400856
8	2914	580.475761534122	0.10992101322
8	2917	580.913642805573	0.516353243222
8	2922	581.351524077024	0.22483611594
8	2927	581.789405348475	0.381534355219
8	2937	584.442244263462	0.080209059403
8	2947	585.373780340164	0.266060003135
8	2972	590.426109281244	0.004352040287
8	2999	597.211142902327	0.112240342244
8	3002	597.649024173778	0.544297127583
8	3007	598.086905445229	0.104899380582
8	3017	599.09175809012	0.166517675482
8	3027	606.332020770062	0.336418705898
8	3032	606.769902041513	0.324022552093
8	3037	607.207783312964	0.044416303233
8	3044	607.645664584415	0.257029675606
8	3047	608.083545855866	0.527715194449
8	3064	610.264687389979	0.223688693593
8	3067	610.70256866143	0.469811590963
8	3074	611.140449932881	0.287462071792
8	3077	611.578331204332	0.573902007187
8	3102	618.797492400196	0.17448531774
8	3122	621.899017088934	0.37396531872
8	3157	626.691050998974	0.066102397767
8	3198	637.354202923431	0.409426648629
8	3228	647.511174860264	0.028179554834
8	3238	649.373722989701	0.410423730958
8	3243	649.811604261152	0.253244566419
8	3257	651.425049470891	0.248686015362
8	3260	651.862930742342	0.603750670254
8	3263	652.300812013793	0.914582514891
8	3271	654.489011363875	0.03373494486
8	3276	654.926892635326	0.283520950003
8	3286	657.07162951873	0.414066461005
8	3301	659.781306134114	0.125780382619
8	3316	663.313975707833	0.129838419316
8	3338	668.475079737793	0.168201112814
8	3341	668.912961009244	0.532001769875
8	3361	671.442575872526	0.160619379052
8	3366	671.880457143977	0.159451607547
8	3393	675.027404837913	0.410158307386
8	3396	675.465286109364	0.704939574765
8	3401	675.903167380815	0.407175504167
8	3411	677.000623899839	0.322660887909
8	3436	681.714607791999	0.303074874979
8	3443	682.15248906345	0.327068917538
8	3446	682.590370334901	0.452676469374
8	3451	683.028251606352	0.259452503914
8	3456	683.466132877803	0.00437968357
8	3461	683.904014149254	0.259708329867
8	3506	697.046866517963	0.292231427586
8	3533	701.71370549795	0.407158507458
8	3552	706.713452385335	0.199888320757
8	3557	707.151333656786	0.335803822424
8	3562	707.589214928237	0.30801936928
8	3584	714.456819426171	0.424940548628
8	3587	714.894700697622	0.582577302771
8	3592	715.332581969073	0.10651961748
8	3599	715.770463240524	0.296035135509
8	3604	716.208344511975	0.658021414175
8	3611	716.646225783426	0.655118173887
8	3614	717.084107054877	0.720741840941
8	3619	717.521988326328	1.11176946134
8	3621	717.521988326328	0.247251436113
8	3635	720.376071258703	0.211405238238
8	3665	728.3253592104	0.383319261771
8	3675	729.525438581516	0.407376006335
8	3680	729.963319852967	0.158045795237
8	3690	730.948595969478	0.426617965374
8	3695	731.386477240929	0.324357914397
8	3700	731.82435851238	0.133288515314
8	3715	734.832082919569	0.070564186477
8	3720	735.26996419102	0.20146523331
8	3730	736.350963856301	0.015821465059
8	3740	737.543521408536	0.334475329219
8	3745	737.981402679987	0.237855770552
8	3755	740.265941435431	0.236787770582
8	3770	743.793195413245	0.234156192534
8	3790	749.617257923177	0.047145972055
8	3800	751.269040108817	0.312467365697
8	3812	754.234938986485	0.163035511164
8	3817	754.672820257936	0.494402433952
8	3820	755.110701529387	0.477676376868
8	3857	769.411679370854	0.391398973381
8	3866	769.849560642305	0.706605835106
8	3869	770.287441913756	0.732597115371
8	3872	770.725323185207	1.147686027433
8	3874	770.725323185207	0.879503993491
8	3881	772.724172307078	0.020987701859
8	3886	773.162053578529	0.349056608354
8	3893	773.825450378981	0.290600578226
8	3897	774.263331650432	0.344972912415
8	3907	776.874735449019	0.122074446449
8	3922	778.99902279824	0.358292176616
8	3964	791.491740362173	0.346588378181
8	3969	791.929621633624	0.520293620533
8	3972	792.367502905075	0.822707296281
8	3982	793.667357388755	0.396087895406
8	3992	794.900457802816	0.146339196096
8	4012	799.72793855575	0.048795542512
8	4037	805.777563176781	0.280385056801
8	4047	806.755647813597	0.397493370337
8	4067	810.942056826899	0.330978691792
8	4092	816.321037948479	0.272606678682
8	4097	816.75891921993	0.254675336179
8	4112	818.362760623785	0.35754920557
8	4119	818.800641895236	0.266127238862
8	4122	819.238523166687	0.558284863933
8	4147	824.670824917098	0.351634015844
8	4157	826.87413737917	0.014957817771
8	4169	830.061864420558	0.388813214602
8	4172	830.499745692009	0.551169546604
8	4189	832.627949103025	0.373180194242
8	4192	833.065830374476	0.535851444147
8	4212	835.531883265949	0.303985483841
8	4237	840.831204239424	0.353232198326
8	4244	841.494601039876	0.351759508583
8	4253	842.395323618055	0.223898907989
8	4265	844.608733676623	0.403564335632
8	4268	845.046614948074	0.560228492217
8	4280	847.450760157632	0.160008419388
8	4289	847.888641429083	0.474214231489
8	4292	848.326522700534	0.786824676442
8	4297	848.764403971985	1.03496233155
8	4299	848.764403971985	1.032239088134
8	4300	848.764403971985	0.097656704805
8	4319	852.112597552288	0.114704941534
8	4334	853.985865210419	0.087141208429
8	4339	854.42374648187	0.046969066075
8	4344	854.861627753321	0.005230098795
8	4349	855.299509024772	0.240487667567
8	4359	856.955623298299	0.185223563982
8	4369	859.680129004815	0.264163209031
8	4384	864.66905588417	0.054956508778
8	4389	865.106937155621	0.167757902118
8	4394	865.544818427072	0.365937516919
8	4399	865.982699698523	0.360017872543
8	4404	866.420580969974	0.40349037946
8	4416	869.679601158303	0.368014048278
8	4419	870.117482429754	0.536856594842
8	4468	880.193704510011	0.17403158267
8	4471	880.631585781462	0.541672230543
8	4476	881.069467052913	0.969504355918
8	4478	881.069467052913	0.11773978091
8	4487	883.349553127207	0.208435728988
8	4502	887.761431390108	0.231052816784
8	4512	889.564843981197	0.176631242119
8	4522	893.013702711482	0.348944273794
8	4527	893.451583982933	0.372128755518
8	4582	910.754900468711	0.22145588945
8	4608	918.30679067987	0.047745397006
8	4618	921.535122567304	0.225331279578
8	4623	921.973003838755	0.352944960193
8	4650	930.015439334009	0.204430281972
8	4655	930.45332060546	0.470005096067
8	4658	930.891201876911	0.787865718899
8	4668	932.200487946559	0.306774929886
8	4678	933.699524153388	0.073474734984
8	4683	934.137405424839	0.141786286558
8	4688	934.57528669629	0.039449818024
8	4718	940.849179503359	0.265240784617
8	4738	946.359154041922	0.218023844688
8	4758	950.489963322659	0.359567905599
8	4763	950.92784459411	0.113721081357
8	4778	953.296574538696	0.386516366773
8	4783	953.734455810147	0.040501408408
8	4788	954.172337081598	0.252844785239
8	4808	956.605588939036	0.040859537964
8	4823	958.985238475962	0.213953476927
8	4838	961.313412261655	0.253175407753
8	4845	961.751293533106	0.389650727423
8	4848	962.189174804557	0.511865391443
8	4878	969.312556087966	0.40335641308
8	4898	975.602878592484	0.123472312803
8	4903	976.040759863935	0.435198892895
8	4908	976.478641135386	0.024131525501
8	4913	976.916522406837	0.275764281023
8	4923	979.454902862313	0.408068814538
8	4948	983.533910408855	0.11849839892

