version 2
run General-403-20240201-11:04:30-40057
attr configname General
attr datetime 20240201-11:04:30
attr experiment General
attr inifile main.ini
attr iterationvars "$0=1.0, $1=1.7, $2=70"
attr iterationvarsf 1.0,1.7,70-
attr measurement "$0=1.0, $1=1.7, $2=70"
attr network Rete
attr processid 40057
attr repetition 3
attr replication #3
attr resultdir results
attr runnumber 403
attr seedset 403
param Rete.lambda 1.0
param Rete.a 0.3s
param Rete.b 1.7s
param Rete.c 0.1s
param Rete.d 0.3s
param Rete.mu 3.0
param Rete.source2.interArrivalTime exponential(1s/lambda)
param Rete.source2.jobServiceTime exponential(1s/mu)
param Rete.source2.deadline uniform(a,b)
param Rete.server2.j 70
param Rete.server2.V uniform(c,d)

vector 0 Rete.passiveQueue queueLength:vector ETV
attr interpolationmode sample-hold
attr title "queue length, vector"
vector 1 Rete.sink lifeTime:vector ETV
attr interpolationmode none
attr title "lifetime of arrived jobs, vector"
attr unit s
vector 2 Rete.sink totalQueueingTime:vector ETV
attr interpolationmode none
attr title "the total time spent in queues by arrived jobs, vector"
attr unit s
vector 3 Rete.sink queuesVisited:vector ETV
attr interpolationmode none
attr title "the total number of queues visited by arrived jobs, vector"
vector 4 Rete.sink totalServiceTime:vector ETV
attr interpolationmode none
attr title "the total time spent  by arrived jobs, vector"
attr unit s
vector 5 Rete.sink totalDelayTime:vector ETV
attr interpolationmode none
attr title "the total time spent in delay nodes by arrived jobs, vector"
attr unit s
vector 6 Rete.sink delaysVisited:vector ETV
attr interpolationmode none
attr title "the total number of delays visited by arrived jobs, vector"
vector 7 Rete.sink generation:vector ETV
attr interpolationmode none
attr title "the generation of the arrived jobs, vector"
vector 8 Rete.passiveQueue queueingTime:vector ETV
attr interpolationmode none
attr title "queueing time at dequeue, vector"
attr unit s
0	0	0	0
0	75	14.697816491188	1
0	77	14.735090101675	2
0	78	14.930219302327	1
0	82	15.138677322436	2
0	83	15.220572148861	1
0	86	15.510924995395	0
0	95	16.22892858178	1
0	96	16.23787205397	0
0	100	16.259336369608	1
0	101	16.528224900504	0
0	110	17.080514290705	1
0	111	17.15300505233	0
0	120	18.195714840611	1
0	121	18.365922440809	0
0	130	18.88300998137	1
0	131	18.950049486495	0
0	145	21.520524104299	1
0	146	21.553648233415	0
0	165	27.09916223488	1
0	166	27.336110931435	0
0	180	29.808587541045	1
0	182	29.883406378396	2
0	183	29.941717405247	1
0	186	30.232070251781	0
0	220	36.119095010298	1
0	221	36.164532209889	0
0	260	43.903284699656	1
0	262	43.995122748411	2
0	263	44.036492333487	1
0	266	44.326845180021	0
0	275	45.187646177707	1
0	276	45.236110203462	0
0	325	61.523187679085	1
0	326	61.707504623674	0
0	361	70.314040067515	1
0	362	70.31899697708	0
0	371	71.068239622026	1
0	372	71.304253065391	0
0	411	77.085765742302	1
0	412	77.213461039458	0
0	441	84.03754920627	1
0	442	84.127030672038	0
0	471	89.20724949851	1
0	472	89.369652878103	0
0	481	90.580168179813	1
0	482	90.857781800747	0
0	536	98.083941303482	1
0	537	98.340588677	0
0	556	100.835698448481	1
0	557	100.968122077502	0
0	566	101.677321542114	1
0	567	101.966516559404	0
0	576	103.564444702035	1
0	577	103.583394542769	0
0	586	106.726611236895	1
0	587	107.007894581468	0
0	601	108.340657579812	1
0	602	108.37265626361	0
0	636	118.014755044758	1
0	638	118.192510756837	2
0	639	118.28259008378	1
0	643	118.297651481085	2
0	644	118.572942930314	1
0	648	118.707407887976	2
0	649	118.863295776848	1
0	652	119.153648623382	0
0	676	126.771017499756	1
0	677	127.028541803851	0
0	686	127.705790574983	1
0	688	127.71888822874	2
0	689	127.870210697989	1
0	692	128.160563544523	0
0	696	128.364952321706	1
0	697	128.450916391057	0
0	772	149.19955681007	1
0	773	149.233167452847	0
0	807	158.240080857559	1
0	808	158.440885827791	0
0	837	164.27161645901	1
0	838	164.487071326212	0
0	852	167.396493085116	1
0	853	167.590795394612	0
0	857	167.631794898169	1
0	859	167.651165420286	2
0	860	167.881148241146	1
0	864	168.147900602617	2
0	865	168.17150108768	1
0	868	168.461853934214	0
0	897	172.632819502164	1
0	898	172.884378953065	0
0	907	176.004711040368	1
0	909	176.096110912853	2
0	910	176.224143805963	1
0	914	176.313089637951	2
0	915	176.514496652497	1
0	918	176.804849499031	0
0	972	190.354944248645	1
0	973	190.358772236142	0
0	977	190.635611098513	1
0	978	190.649125082676	0
0	1007	197.306147860443	1
0	1008	197.551549399543	0
0	1012	197.602569585772	1
0	1013	197.841902246077	0
0	1037	202.714720647129	1
0	1039	202.85233352144	2
0	1040	202.948643095942	1
0	1043	203.238995942476	0
0	1047	203.436413508561	1
0	1048	203.52934878901	0
0	1073	210.704691005995	1
0	1074	210.887888792917	0
0	1083	211.993523238066	1
0	1084	212.129140833414	0
0	1093	213.232590115071	1
0	1094	213.37111225746	0
0	1098	213.60969138547	1
0	1099	213.661465103994	0
0	1103	213.707691149359	1
0	1104	213.951817950528	0
0	1113	214.869999680588	1
0	1115	214.870260327714	2
0	1116	214.942076485634	1
0	1120	215.224531371421	2
0	1121	215.232429332168	1
0	1125	215.266423824142	2
0	1127	215.42574521084	3
0	1128	215.522782178702	2
0	1132	215.619763246738	3
0	1133	215.813135025236	2
0	1137	215.952314266397	3
0	1139	216.01887877328	4
0	1140	216.10348787177	3
0	1143	216.393840718304	2
0	1146	216.684193564838	1
0	1149	216.974546411372	0
0	1186	225.005825188188	1
0	1187	225.042072612359	0
0	1226	231.54293304639	1
0	1227	231.742720244997	0
0	1246	235.353827623584	1
0	1248	235.3899417676	2
0	1249	235.474076482447	1
0	1252	235.764429328981	0
0	1271	241.619242335604	1
0	1272	241.826078793307	0
0	1286	246.577360718619	1
0	1287	246.644164741273	0
0	1331	264.212848813202	1
0	1332	264.405239748476	0
0	1351	267.397005054729	1
0	1352	267.685064373505	0
0	1366	273.633508510475	1
0	1367	273.635793580859	0
0	1401	282.916849371862	1
0	1403	282.971896488304	2
0	1404	283.040425380951	1
0	1409	283.532806398458	0
0	1427	286.751081700051	1
0	1429	286.790621481664	2
0	1430	286.958445215679	1
0	1433	287.248798062213	0
0	1507	304.486487841873	1
0	1509	304.515520590028	2
0	1510	304.611458883973	1
0	1513	304.901811730507	0
0	1522	306.900258949796	1
0	1523	307.004663153375	0
0	1537	310.040599313514	1
0	1538	310.208644243807	0
0	1572	322.322106407299	1
0	1573	322.567756490227	0
0	1592	324.597114825507	1
0	1593	324.800453461795	0
0	1617	329.132194520857	1
0	1618	329.139728645798	0
0	1622	329.342102747079	1
0	1624	329.391187362366	2
0	1625	329.430081492332	1
0	1628	329.720434338866	0
0	1642	335.067662298669	1
0	1644	335.176545946898	2
0	1645	335.337085539949	1
0	1649	335.507041502412	2
0	1650	335.627438386483	1
0	1654	335.690566970706	2
0	1655	335.917791233017	1
0	1658	336.208144079551	0
0	1662	336.42356082159	1
0	1663	336.498496926085	0
0	1697	342.470589692963	1
0	1698	342.627517747291	0
0	1752	349.909033838278	1
0	1753	350.069547098537	0
0	1773	354.583686425965	1
0	1774	354.759838313593	0
0	1798	361.06513249961	1
0	1799	361.081897844065	0
0	1818	362.843746776357	1
0	1819	363.131185909236	0
0	1828	364.614684079691	1
0	1829	364.775202433261	0
0	1863	369.486050519487	1
0	1864	369.552880779344	0
0	1888	374.626808821167	1
0	1889	374.655395896994	0
0	1903	381.940090196304	1
0	1904	382.128650405612	0
0	1928	385.046205924506	1
0	1929	385.329520331324	0
0	1983	399.185317877874	1
0	1984	399.20699549774	0
0	1988	399.261177756536	1
0	1990	399.353524846521	2
0	1991	399.497348344274	1
0	1994	399.787701190808	0
0	2013	403.279233350927	1
0	2014	403.538326510658	0
0	2063	418.261195105142	1
0	2065	418.46097062249	2
0	2066	418.490185713405	1
0	2069	418.780538559939	0
0	2073	418.970639038268	1
0	2074	419.070891406473	0
0	2139	435.289046892892	1
0	2140	435.40187958648	0
0	2144	435.619201015951	1
0	2145	435.692232433014	0
0	2154	437.341585238763	1
0	2155	437.478722802876	0
0	2164	439.053075736081	1
0	2165	439.178475070972	0
0	2199	449.569803531919	1
0	2200	449.72450631914	0
0	2214	451.820788194741	1
0	2215	451.964982500308	0
0	2224	454.377028149726	1
0	2225	454.429114069198	0
0	2244	458.089341796629	1
0	2245	458.181965776415	0
0	2254	458.719413428782	1
0	2256	458.761217424753	2
0	2257	458.839215318815	1
0	2260	459.129568165349	0
0	2269	459.961558021693	1
0	2270	460.044644123521	0
0	2289	469.58933389745	1
0	2291	469.732426110418	2
0	2292	469.868958029898	1
0	2295	470.159310876432	0
0	2299	470.327829754146	1
0	2301	470.375322848001	2
0	2302	470.449663722966	1
0	2306	470.595894890794	2
0	2307	470.7400165695	1
0	2310	471.030369416034	0
0	2359	481.824486017564	1
0	2360	481.850429630079	0
0	2399	487.559434205768	1
0	2400	487.692044447212	0
0	2414	490.54075123609	1
0	2416	490.643301084901	2
0	2417	490.676264432405	1
0	2420	490.966617278939	0
0	2439	493.447299239406	1
0	2440	493.497299109353	0
0	2449	496.026787864359	1
0	2450	496.168747507212	0
0	2461	497.944530012821	1
0	2462	498.10475219457	0
0	2480	500.825652533567	1
0	2481	501.017890990548	0
0	2495	502.511620005086	1
0	2496	502.553399967126	0
0	2510	503.857455830316	1
0	2511	503.861312610046	0
0	2520	504.966750374907	1
0	2521	505.043333074712	0
0	2550	513.995455178717	1
0	2551	514.192047316948	0
0	2565	515.403235654326	1
0	2566	515.68906465303	0
0	2570	515.71516138383	1
0	2571	515.979417499564	0
0	2650	530.654803136723	1
0	2651	530.764767599679	0
0	2695	540.578520518179	1
0	2696	540.617905809789	0
0	2715	547.885139774356	1
0	2716	548.01902953975	0
0	2735	550.834976380276	1
0	2736	551.050420456296	0
0	2760	559.317390884774	1
0	2762	559.53388582589	2
0	2763	559.577648868094	1
0	2766	559.868001714628	0
0	2775	560.765805317222	1
0	2776	560.945697431081	0
0	2800	568.068046567831	1
0	2801	568.131280085182	0
0	2821	571.957961982813	1
0	2822	572.11133546063	0
0	2851	577.498454924468	1
0	2852	577.534594107051	0
0	2886	585.16341714844	1
0	2887	585.41143502523	0
0	2891	585.528633800204	1
0	2892	585.701787871764	0
0	2926	595.21317601878	1
0	2927	595.220607679029	0
0	2956	604.294594497459	1
0	2957	604.336350768745	0
0	2966	606.115214545186	1
0	2967	606.287323075398	0
0	2981	607.836114247498	1
0	2982	607.925517198423	0
0	2986	608.048158698246	1
0	2987	608.215870044957	0
0	2991	608.268711418595	1
0	2992	608.506222891491	0
0	3006	610.262890403281	1
0	3007	610.414427147326	0
0	3011	610.47687521484	1
0	3012	610.70477999386	0
0	3021	612.234420365552	1
0	3022	612.251407832685	0
0	3036	616.84232778341	1
0	3037	616.853510871891	0
0	3041	616.995702408398	1
0	3042	617.143863718425	0
0	3076	626.598258199378	1
0	3077	626.845503861127	0
0	3086	627.456152360685	1
0	3087	627.512776566061	0
0	3101	630.85024564515	1
0	3102	630.861621259175	0
0	3146	638.38682297962	1
0	3147	638.650519424254	0
0	3167	641.991757986834	1
0	3168	641.992113772114	0
0	3172	642.002137947382	1
0	3173	642.282466618648	0
0	3187	644.370013044033	1
0	3188	644.445096667024	0
0	3197	644.937127433222	1
0	3198	645.199473569988	0
0	3232	649.616483050324	1
0	3233	649.841180360323	0
0	3257	654.163332971539	1
0	3258	654.450764306787	0
0	3277	659.686337054932	1
0	3278	659.880501124814	0
0	3282	660.054951629353	1
0	3283	660.170853971348	0
0	3302	664.363906165639	1
0	3303	664.603367459093	0
0	3312	665.785155688296	1
0	3313	665.932111865692	0
0	3357	680.101014866573	1
0	3358	680.210326411058	0
0	3367	681.782772247492	1
0	3368	681.818731129706	0
0	3397	687.810874623578	1
0	3398	688.036316569916	0
0	3402	688.197511916812	1
0	3403	688.32666941645	0
0	3407	688.585253689084	1
0	3408	688.617022262984	0
0	3417	690.009051521863	1
0	3418	690.223871681249	0
0	3442	695.658104794665	1
0	3443	695.705891215188	0
0	3457	697.39424653303	1
0	3458	697.65049333034	0
0	3477	705.320638206914	1
0	3478	705.575434652938	0
0	3482	705.672137802891	1
0	3483	705.865787499472	0
0	3502	709.49933395568	1
0	3503	709.623728082691	0
0	3538	716.81818357465	1
0	3539	716.914718351725	0
0	3583	726.046927518052	1
0	3585	726.109207746148	2
0	3586	726.205650630872	1
0	3589	726.496003477406	0
0	3618	732.50734790154	1
0	3620	732.507603407603	2
0	3622	732.659018889493	3
0	3623	732.664449885538	2
0	3626	732.954802732072	1
0	3630	732.956873271893	2
0	3631	733.245155578606	1
0	3634	733.53550842514	0
0	3648	736.578407646347	1
0	3649	736.650889986229	0
0	3668	743.326889550435	1
0	3669	743.601421972314	0
0	3673	743.626641675771	1
0	3674	743.891774818848	0
0	3698	750.996223981286	1
0	3700	751.001213681051	2
0	3701	751.23345695285	1
0	3704	751.523809799384	0
0	3718	752.708796783382	1
0	3719	752.838469996324	0
0	3723	753.002762594373	1
0	3724	753.128822842858	0
0	3738	755.577234747192	1
0	3739	755.792044363915	0
0	3763	759.893675519563	1
0	3764	760.019755310011	0
0	3778	762.326336274829	1
0	3779	762.347052396644	0
0	3838	781.172745561047	1
0	3839	781.298053942023	0
0	3858	785.11957982341	1
0	3859	785.207849235514	0
0	3863	785.268632797774	1
0	3866	785.700230253021	0
0	3899	791.014365923999	1
0	3900	791.270048285329	0
0	3909	791.782435191971	1
0	3910	792.019237014404	0
0	3924	793.32078203523	1
0	3925	793.594988851059	0
0	3934	795.045168742704	1
0	3935	795.117688145831	0
0	3964	801.973387179392	1
0	3965	802.076181039214	0
0	3994	807.588881109546	1
0	3995	807.776337289525	0
0	4029	818.544290528268	1
0	4030	818.758479399607	0
0	4059	826.327497498886	1
0	4061	826.351269680863	2
0	4062	826.5848969483	1
0	4065	826.875249794834	0
0	4069	826.956355304898	1
0	4070	827.165602641368	0
0	4079	828.271014366643	1
0	4080	828.429297874694	0
0	4084	828.493828599424	1
0	4085	828.719650721228	0
0	4124	838.571501105608	1
0	4125	838.809714050727	0
0	4169	852.124766896984	1
0	4170	852.376299604481	0
0	4240	874.948534485842	1
0	4241	875.183403811743	0
0	4265	882.138561540259	1
0	4266	882.159731119875	0
0	4295	888.947036402412	1
0	4296	888.961933745913	0
0	4320	892.546350892282	1
0	4321	892.743782935689	0
0	4325	892.917031989111	1
0	4326	893.034135782223	0
0	4330	893.21661473503	1
0	4331	893.324488628757	0
0	4355	898.170000448143	1
0	4357	898.243090981427	2
0	4358	898.246747469924	1
0	4361	898.537100316458	0
0	4365	898.618757582265	1
0	4366	898.827453162992	0
0	4405	908.085034136366	1
0	4406	908.241504991512	0
0	4410	908.261133075301	1
0	4412	908.335761927809	2
0	4414	908.470087218114	3
0	4415	908.531857838046	2
0	4418	908.82221068458	1
0	4421	909.112563531114	0
0	4435	915.94780422893	1
0	4436	915.979887045125	0
0	4475	920.689874941591	1
0	4476	920.690269594401	0
0	4480	920.728745823416	1
0	4481	920.980622440935	0
0	4490	923.216447301534	1
0	4491	923.239363508263	0
0	4520	930.808601414093	1
0	4521	930.915774523815	0
0	4565	951.200506089409	1
0	4568	951.429468811518	0
0	4571	951.582332434493	1
0	4572	951.719821658052	0
0	4601	958.332174312019	1
0	4603	958.385541747759	2
0	4604	958.416269112292	1
0	4607	958.706621958826	0
0	4641	965.486522483699	1
0	4642	965.746552973848	0
0	4661	968.528990371674	1
0	4662	968.799224138241	0
0	4686	971.847173777126	1
0	4687	972.063226229452	0
0	4696	973.031478425248	1
0	4697	973.086184432416	0
0	4711	976.208721992253	1
0	4712	976.441821562751	0
0	4716	976.678030868267	1
0	4717	976.732174409285	0
0	4721	977.016537167828	1
0	4722	977.022527255819	0
0	4751	987.696316213097	1
0	4752	987.764346034712	0
0	4761	988.492244454101	1
0	4763	988.559195298741	2
0	4764	988.730205890323	1
0	4768	988.878904581509	2
0	4769	989.020558736857	1
0	4772	989.310911583391	0
0	4791	995.452732535476	1
0	4792	995.703895610937	0
0	4801	996.35964723479	1
0	4802	996.522924622425	0
0	4811	997.134931623892	1
0	4812	997.372620037629	0
1	5	0.491702574344	0.290352846534
1	10	1.395200169481	0.290352846534
1	15	2.14148215279	0.290352846534
1	20	2.599782810939	0.290352846534
1	25	5.377228230436	0.290352846534
1	30	5.737534463066	0.290352846534
1	35	6.199408213968	0.290352846534
1	40	7.005140975072	0.290352846534
1	45	8.136073018604	0.290352846534
1	50	9.398527564728	0.290352846534
1	55	10.95920625795	0.290352846534
1	60	11.52335540773	0.290352846534
1	65	13.360720118261	0.290352846534
1	70	13.971218813864	0.290352846534
1	79	14.930219302327	0.290352846534
1	84	15.220572148861	0.522755657673
1	87	15.510924995395	0.77583489372
1	90	15.801277841929	0.662600519493
1	97	16.23787205397	0.290352846534
1	102	16.528224900504	0.299296318724
1	105	16.818577747038	0.55924137743
1	112	17.15300505233	0.290352846534
1	115	17.443357898864	0.362843608159
1	122	18.365922440809	0.290352846534
1	125	18.656275287343	0.460560446732
1	132	18.950049486495	0.290352846534
1	135	19.240402333029	0.357392351659
1	140	19.55558534082	0.290352846534
1	147	21.553648233415	0.290352846534
1	150	21.844001079949	0.32347697565
1	155	22.386705423534	0.290352846534
1	160	23.16781957079	0.290352846534
1	167	27.336110931435	0.290352846534
1	170	27.626463777969	0.527301543089
1	175	28.442229604832	0.290352846534
1	184	29.941717405247	0.290352846534
1	187	30.232070251781	0.423482710736
1	190	30.522423098315	0.639016719919
1	195	30.952493233681	0.290352846534
1	200	31.979468990933	0.290352846534
1	205	33.18377576338	0.290352846534
1	210	33.76278951227	0.290352846534
1	215	34.845651294618	0.290352846534
1	222	36.164532209889	0.290352846534
1	225	36.454885056423	0.335790046125
1	230	36.909248316413	0.290352846534
1	235	38.257151920065	0.290352846534
1	240	39.363664658746	0.290352846534
1	245	40.164607952956	0.290352846534
1	250	40.960643361152	0.290352846534
1	255	41.254436705982	0.290352846534
1	264	44.036492333487	0.290352846534
1	267	44.326845180021	0.423560480365
1	270	44.617198026555	0.622075278144
1	277	45.236110203462	0.290352846534
1	280	45.526463049996	0.338816872289
1	285	50.392186017179	0.290352846534
1	290	52.115988230158	0.290352846534
1	295	52.609603872592	0.290352846534
1	300	53.381661893316	0.290352846534
1	305	55.409644042778	0.290352846534
1	310	56.086902806013	0.290352846534
1	315	57.491619265186	0.290352846534
1	320	59.171297143796	0.290352846534
1	327	61.707504623674	0.290352846534
1	330	61.997857470208	0.474669791123
1	335	62.391724211135	0.290352846534
1	340	63.23075527696	0.290352846534
1	345	65.139801673616	0.290352846534
1	350	68.70085856111	0.290352846534
1	356	69.362394231546	0.290352846534
1	363	70.31899697708	0.290352846534
1	366	70.609349823614	0.295309756099
1	373	71.304253065391	0.290352846534
1	376	71.594605911925	0.526366289899
1	381	72.01742198271	0.290352846534
1	386	72.867127115973	0.290352846534
1	391	74.844699661224	0.290352846534
1	396	75.664313587261	0.290352846534
1	401	76.336742540586	0.290352846534
1	406	76.814473211899	0.290352846534
1	413	77.213461039458	0.290352846534
1	416	77.503813885992	0.41804814369
1	421	78.844430735379	0.290352846534
1	426	79.167792775479	0.290352846534
1	431	81.493058364268	0.290352846534
1	436	81.918219964646	0.290352846534
1	443	84.127030672038	0.290352846534
1	446	84.417383518572	0.379834312302
1	451	84.960312248204	0.290352846534
1	456	85.266178298639	0.290352846534
1	461	85.950668976294	0.290352846534
1	466	87.801983419854	0.290352846534
1	473	89.369652878103	0.290352846534
1	476	89.660005724637	0.452756226127
1	483	90.857781800747	0.290352846534
1	486	91.148134647281	0.567966467468
1	491	92.150683458589	0.290352846534
1	496	93.13283641803	0.290352846534
1	501	93.821393321073	0.290352846534
1	506	94.123173651808	0.290352846534
1	511	94.510654842819	0.290352846534
1	516	95.063156923028	0.290352846534
1	521	95.661731303024	0.290352846534
1	526	96.538236959141	0.290352846534
1	531	97.151350756472	0.290352846534
1	538	98.340588677	0.290352846534
1	541	98.630941523534	0.547000220052
1	546	99.638845036569	0.290352846534
1	551	100.073960846226	0.290352846534
1	558	100.968122077502	0.290352846534
1	561	101.258474924036	0.422776475555
1	568	101.966516559404	0.290352846534
1	571	102.256869405938	0.579547863824
1	578	103.583394542769	0.290352846534
1	581	103.873747389303	0.309302687268
1	588	107.007894581468	0.290352846534
1	591	107.298247428002	0.571636191107
1	596	108.055678314072	0.290352846534
1	603	108.37265626361	0.290352846534
1	606	108.663009110144	0.322351530332
1	611	109.143656928596	0.290352846534
1	616	110.639261921081	0.290352846534
1	621	113.140023381722	0.290352846534
1	626	114.103922031362	0.290352846534
1	631	114.64806528459	0.290352846534
1	640	118.28259008378	0.290352846534
1	645	118.572942930314	0.558187885556
1	650	118.863295776848	0.670785020011
1	653	119.153648623382	0.855997142297
1	656	119.444001469916	0.73659358194
1	661	120.351867107904	0.290352846534
1	666	122.073965291443	0.290352846534
1	671	125.080650911248	0.290352846534
1	678	127.028541803851	0.290352846534
1	681	127.318894650385	0.547877150629
1	690	127.870210697989	0.290352846534
1	693	128.160563544523	0.45477296954
1	698	128.450916391057	0.732028162317
1	701	128.741269237591	0.376316915885
1	707	129.650273974976	0.290352846534
1	712	130.772229129184	0.290352846534
1	717	131.084556004605	0.290352846534
1	722	133.295604180868	0.290352846534
1	727	133.995359370147	0.290352846534
1	732	134.311032066034	0.290352846534
1	737	134.666415519548	0.290352846534
1	742	140.837559178197	0.290352846534
1	747	141.451032838324	0.290352846534
1	752	143.70708568508	0.290352846534
1	757	144.080004085029	0.290352846534
1	762	146.504910130748	0.290352846534
1	767	147.968129426019	0.290352846534
1	774	149.233167452847	0.290352846534
1	777	149.523520299381	0.323963489311
1	782	150.188982913813	0.290352846534
1	787	152.54627593691	0.290352846534
1	792	153.545498777684	0.290352846534
1	797	156.193895693342	0.290352846534
1	802	157.664619402407	0.290352846534
1	809	158.440885827791	0.290352846534
1	812	158.731238674325	0.491157816766
1	817	159.885987535105	0.290352846534
1	822	160.43258576707	0.290352846534
1	827	161.771852252401	0.290352846534
1	832	162.846877760038	0.290352846534
1	839	164.487071326212	0.290352846534
1	842	164.777424172746	0.505807713736
1	847	166.46341721685	0.290352846534
1	854	167.590795394612	0.290352846534
1	861	167.881148241146	0.48465515603
1	866	168.17150108768	0.539706189511
1	869	168.461853934214	0.810688513928
1	872	168.752206780748	0.604306178131
1	877	170.421834837157	0.290352846534
1	882	171.192484698847	0.290352846534
1	887	172.143990917202	0.290352846534
1	892	172.489168666407	0.290352846534
1	899	172.884378953065	0.290352846534
1	902	173.174731799599	0.541912297435
1	911	176.224143805963	0.290352846534
1	916	176.514496652497	0.509785612129
1	919	176.804849499031	0.708738586178
1	922	177.095202345565	0.782112707614
1	927	177.847314816162	0.290352846534
1	932	178.599730151583	0.290352846534
1	937	181.799759911154	0.290352846534
1	942	182.674352596344	0.290352846534
1	947	183.97580232099	0.290352846534
1	952	184.49937999779	0.290352846534
1	957	185.070544501917	0.290352846534
1	962	185.462683391846	0.290352846534
1	967	189.530558376403	0.290352846534
1	974	190.358772236142	0.290352846534
1	979	190.649125082676	0.294180834031
1	982	190.93947792921	0.303866830697
1	987	191.618680193071	0.290352846534
1	992	192.94274634534	0.290352846534
1	997	193.769954485802	0.290352846534
1	1002	196.492705175051	0.290352846534
1	1009	197.551549399543	0.290352846534
1	1014	197.841902246077	0.535754385634
1	1017	198.132255092611	0.529685506839
1	1022	201.348041335237	0.290352846534
1	1027	201.737041393326	0.290352846534
1	1032	202.047406184828	0.290352846534
1	1041	202.948643095942	0.290352846534
1	1044	203.238995942476	0.524275295347
1	1049	203.52934878901	0.67701526757
1	1052	203.819701635544	0.383288126983
1	1058	205.070058594174	0.290352846534
1	1063	208.820319402976	0.290352846534
1	1068	209.821599687445	0.290352846534
1	1075	210.887888792917	0.290352846534
1	1078	211.178241639451	0.473550633456
1	1085	212.129140833414	0.290352846534
1	1088	212.419493679948	0.425970441882
1	1095	213.37111225746	0.290352846534
1	1100	213.661465103994	0.428874988923
1	1105	213.951817950528	0.342126565058
1	1108	214.242170797062	0.534479647703
1	1117	214.942076485634	0.290352846534
1	1122	215.232429332168	0.36242965158
1	1129	215.522782178702	0.652521850988
1	1134	215.813135025236	0.588603653815
1	1141	216.10348787177	0.837064047628
1	1144	216.393840718304	0.968095507464
1	1147	216.684193564838	1.0644303181
1	1150	216.974546411372	1.022232144975
1	1156	217.3222341181	0.290352846534
1	1161	218.589893738102	0.290352846534
1	1166	219.566668992398	0.290352846534
1	1171	220.686365545814	0.290352846534
1	1176	222.037501998748	0.290352846534
1	1181	223.930703372847	0.290352846534
1	1188	225.042072612359	0.290352846534
1	1191	225.332425458893	0.326600270705
1	1196	226.87833362372	0.290352846534
1	1201	227.626059683202	0.290352846534
1	1206	228.381249100153	0.290352846534
1	1211	228.901136974194	0.290352846534
1	1216	230.132024653777	0.290352846534
1	1221	230.837049078063	0.290352846534
1	1228	231.742720244997	0.290352846534
1	1231	232.033073091531	0.490140045141
1	1236	232.510620703234	0.290352846534
1	1241	233.747342198203	0.290352846534
1	1250	235.474076482447	0.290352846534
1	1253	235.764429328981	0.410601705397
1	1256	236.054782175515	0.664840407915
1	1261	240.621308772082	0.290352846534
1	1266	241.280677008981	0.290352846534
1	1273	241.826078793307	0.290352846534
1	1276	242.116431639841	0.497189304237
1	1281	246.207226266677	0.290352846534
1	1288	246.644164741273	0.290352846534
1	1291	246.934517587807	0.357156869188
1	1296	247.71449705568	0.290352846534
1	1301	249.101267062277	0.290352846534
1	1306	251.440493352773	0.290352846534
1	1311	254.692507272758	0.290352846534
1	1316	255.984753287201	0.290352846534
1	1321	261.007734902891	0.290352846534
1	1326	262.106448432146	0.290352846534
1	1333	264.405239748476	0.290352846534
1	1336	264.69559259501	0.482743781808
1	1341	265.341309556208	0.290352846534
1	1346	266.786186000037	0.290352846534
1	1353	267.685064373505	0.290352846534
1	1356	267.975417220039	0.57841216531
1	1361	271.276464603428	0.290352846534
1	1368	273.635793580859	0.290352846534
1	1371	273.926146427393	0.292637916918
1	1376	274.64165888782	0.290352846534
1	1381	276.090084335925	0.290352846534
1	1386	279.912737873263	0.290352846534
1	1391	281.088961352095	0.290352846534
1	1396	282.329316428028	0.290352846534
1	1405	283.040425380951	0.290352846534
1	1408	283.330778227485	0.413928855623
1	1412	283.823159244992	0.851262756688
1	1417	285.411227475922	0.290352846534
1	1422	285.709758600334	0.290352846534
1	1431	286.958445215679	0.290352846534
1	1434	287.248798062213	0.497716362162
1	1437	287.539150908747	0.748529427083
1	1442	288.692654671338	0.290352846534
1	1447	291.718655392772	0.290352846534
1	1452	292.229641009833	0.290352846534
1	1457	293.419375987795	0.290352846534
1	1462	293.728633367867	0.290352846534
1	1467	294.12652371293	0.290352846534
1	1472	295.303222500081	0.290352846534
1	1477	296.116949159974	0.290352846534
1	1482	297.211903725126	0.290352846534
1	1487	298.088664065556	0.290352846534
1	1492	299.909091864163	0.290352846534
1	1497	301.040859977704	0.290352846534
1	1502	303.893284508083	0.290352846534
1	1511	304.611458883973	0.290352846534
1	1514	304.901811730507	0.415323888634
1	1517	305.192164577041	0.676643987013
1	1524	307.004663153375	0.290352846534
1	1527	307.295015999909	0.394757050113
1	1532	309.700720833503	0.290352846534
1	1539	310.208644243807	0.290352846534
1	1542	310.498997090341	0.458397776827
1	1547	311.150538482457	0.290352846534
1	1552	313.105569004674	0.290352846534
1	1557	316.044701183673	0.290352846534
1	1562	319.143638218484	0.290352846534
1	1567	320.099161448397	0.290352846534
1	1574	322.567756490227	0.290352846534
1	1577	322.858109336761	0.536002929462
1	1582	323.355255666637	0.290352846534
1	1587	323.73442265274	0.290352846534
1	1594	324.800453461795	0.290352846534
1	1597	325.090806308329	0.493691482822
1	1602	325.545513130163	0.290352846534
1	1607	326.12076513149	0.290352846534
1	1612	327.053055037618	0.290352846534
1	1619	329.139728645798	0.290352846534
1	1626	329.430081492332	0.297886971475
1	1629	329.720434338866	0.378331591787
1	1632	330.0107871854	0.619599823034
1	1637	332.588682708251	0.290352846534
1	1646	335.337085539949	0.290352846534
1	1651	335.627438386483	0.559776087814
1	1656	335.917791233017	0.741245286119
1	1659	336.208144079551	0.701102577139
1	1664	336.498496926085	0.807929955379
1	1667	336.788849772619	0.365288951029
1	1672	337.202716218001	0.290352846534
1	1677	338.177219176846	0.290352846534
1	1682	338.783412236779	0.290352846534
1	1687	340.18338427111	0.290352846534
1	1692	341.798345663964	0.290352846534
1	1699	342.627517747291	0.290352846534
1	1702	342.917870593825	0.447280900862
1	1707	344.532958593822	0.290352846534
1	1712	344.892050260593	0.290352846534
1	1717	346.148137388626	0.290352846534
1	1722	346.958325569851	0.290352846534
1	1727	347.680519536796	0.290352846534
1	1732	348.397785863313	0.290352846534
1	1737	348.86562183186	0.290352846534
1	1742	349.223160358278	0.290352846534
1	1747	349.536366886061	0.290352846534
1	1754	350.069547098537	0.290352846534
1	1757	350.359899945071	0.450866106793
1	1763	353.534514416515	0.290352846534
1	1768	354.077427920423	0.290352846534
1	1775	354.759838313593	0.290352846534
1	1778	355.050191160127	0.466504734162
1	1783	355.672788651396	0.290352846534
1	1788	356.924048848179	0.290352846534
1	1793	358.430203060312	0.290352846534
1	1800	361.081897844065	0.290352846534
1	1803	361.372250690599	0.307118190989
1	1808	361.935350604346	0.290352846534
1	1813	362.548654783622	0.290352846534
1	1820	363.131185909236	0.290352846534
1	1823	363.42153875577	0.577791979413
1	1830	364.775202433261	0.290352846534
1	1833	365.065555279795	0.450871200104
1	1838	365.516818442692	0.290352846534
1	1843	366.814253954286	0.290352846534
1	1848	367.949874464686	0.290352846534
1	1853	368.245341840946	0.290352846534
1	1858	368.536527273202	0.290352846534
1	1865	369.552880779344	0.290352846534
1	1868	369.843233625878	0.357183106391
1	1873	370.896284739284	0.290352846534
1	1878	371.499598986932	0.290352846534
1	1883	372.091881734984	0.290352846534
1	1890	374.655395896994	0.290352846534
1	1893	374.945748743528	0.318939922361
1	1898	381.571863174394	0.290352846534
1	1905	382.128650405612	0.290352846534
1	1908	382.419003252146	0.478913055842
1	1913	382.870998500043	0.290352846534
1	1918	384.381706419082	0.290352846534
1	1923	384.939410640853	0.290352846534
1	1930	385.329520331324	0.290352846534
1	1933	385.619873177858	0.573667253352
1	1938	386.096990551618	0.290352846534
1	1943	387.121732102068	0.290352846534
1	1948	387.644036208918	0.290352846534
1	1953	388.151752021817	0.290352846534
1	1958	388.774876503541	0.290352846534
1	1963	389.949223424367	0.290352846534
1	1968	390.332419991793	0.290352846534
1	1973	392.917600541925	0.290352846534
1	1978	396.70941102829	0.290352846534
1	1985	399.20699549774	0.290352846534
1	1992	399.497348344274	0.3120304664
1	1995	399.787701190808	0.526523434272
1	1998	400.078054037342	0.724529190821
1	2003	401.291383382568	0.290352846534
1	2008	403.133699122905	0.290352846534
1	2015	403.538326510658	0.290352846534
1	2018	403.828679357192	0.549446006265
1	2023	404.526742694345	0.290352846534
1	2028	405.585643314938	0.290352846534
1	2033	406.157011455791	0.290352846534
1	2038	408.106707165838	0.290352846534
1	2043	408.536769342379	0.290352846534
1	2048	412.552363161753	0.290352846534
1	2053	415.376957637824	0.290352846534
1	2058	416.927151639304	0.290352846534
1	2067	418.490185713405	0.290352846534
1	2070	418.780538559939	0.519343454797
1	2075	419.070891406473	0.609920783983
1	2078	419.361244253007	0.390605214739
1	2083	420.109825920047	0.290352846534
1	2088	421.167410219558	0.290352846534
1	2093	421.460044615624	0.290352846534
1	2098	422.786695663115	0.290352846534
1	2103	423.247280334074	0.290352846534
1	2108	423.591589022334	0.290352846534
1	2114	424.100036835011	0.290352846534
1	2119	424.418025683091	0.290352846534
1	2124	425.912788352816	0.290352846534
1	2129	434.158430112337	0.290352846534
1	2134	434.78023671664	0.290352846534
1	2141	435.40187958648	0.290352846534
1	2146	435.692232433014	0.403185540122
1	2149	435.982585279548	0.363384263597
1	2156	437.478722802876	0.290352846534
1	2159	437.76907564941	0.427490410647
1	2166	439.178475070972	0.290352846534
1	2169	439.468827917506	0.415752181425
1	2174	442.61127291627	0.290352846534
1	2179	443.494809963926	0.290352846534
1	2184	443.943030439288	0.290352846534
1	2189	446.865709702865	0.290352846534
1	2194	448.307684610657	0.290352846534
1	2201	449.72450631914	0.290352846534
1	2204	450.014859165674	0.445055633755
1	2209	451.630069650712	0.290352846534
1	2216	451.964982500308	0.290352846534
1	2219	452.255335346842	0.434547152101
1	2226	454.429114069198	0.290352846534
1	2229	454.719466915732	0.342438766006
1	2234	455.239636311829	0.290352846534
1	2239	457.537271471955	0.290352846534
1	2246	458.181965776415	0.290352846534
1	2249	458.472318622949	0.38297682632
1	2258	458.839215318815	0.290352846534
1	2261	459.129568165349	0.410154736567
1	2264	459.419921011883	0.65870358713
1	2271	460.044644123521	0.290352846534
1	2274	460.334996970055	0.373438948362
1	2279	461.914364408996	0.290352846534
1	2284	465.857186618951	0.290352846534
1	2293	469.868958029898	0.290352846534
1	2296	470.159310876432	0.569976978982
1	2303	470.449663722966	0.717237612548
1	2308	470.7400165695	0.412186815354
1	2311	471.030369416034	0.655046568033
1	2314	471.320722262568	0.724827371774
1	2319	471.702953626018	0.290352846534
1	2324	472.048546495671	0.290352846534
1	2329	472.52491661554	0.290352846534
1	2334	473.690203015427	0.290352846534
1	2339	474.399876376212	0.290352846534
1	2344	476.271168539611	0.290352846534
1	2349	479.694495770451	0.290352846534
1	2354	481.334185293503	0.290352846534
1	2361	481.850429630079	0.290352846534
1	2364	482.140782476613	0.316296459049
1	2369	483.960554351241	0.290352846534
1	2374	484.767018299081	0.290352846534
1	2379	485.404964880169	0.290352846534
1	2384	485.853980466887	0.290352846534
1	2389	486.399060323986	0.290352846534
1	2394	487.053820224071	0.290352846534
1	2401	487.692044447212	0.290352846534
1	2404	487.982397293746	0.422963087978
1	2409	488.540089250098	0.290352846534
1	2418	490.676264432405	0.290352846534
1	2421	490.966617278939	0.425866042849
1	2424	491.256970125473	0.613669040572
1	2429	491.677641167065	0.290352846534
1	2434	491.995871546806	0.290352846534
1	2441	493.497299109353	0.290352846534
1	2444	493.787651955887	0.340352716481
1	2451	496.168747507212	0.290352846534
1	2454	496.459100353746	0.432312489387
1	2459	497.902724023597	0.290352846534
1	2465	498.395105041104	0.450575028283
1	2470	499.598679709052	0.290352846534
1	2475	500.509895510652	0.290352846534
1	2482	501.017890990548	0.290352846534
1	2485	501.308243837082	0.482591303515
1	2490	501.633084791254	0.290352846534
1	2497	502.553399967126	0.290352846534
1	2500	502.84375281366	0.332132808574
1	2505	503.249537544672	0.290352846534
1	2512	503.861312610046	0.290352846534
1	2515	504.15166545658	0.294209626264
1	2522	505.043333074712	0.290352846534
1	2525	505.333685921246	0.366935546339
1	2530	507.629826443476	0.290352846534
1	2535	509.236362147865	0.290352846534
1	2540	511.345759544297	0.290352846534
1	2545	513.433667490406	0.290352846534
1	2552	514.192047316948	0.290352846534
1	2555	514.482400163482	0.486944984765
1	2560	515.043938898376	0.290352846534
1	2567	515.68906465303	0.290352846534
1	2572	515.979417499564	0.576181845238
1	2575	516.269770346098	0.554608962268
1	2580	517.20271198842	0.290352846534
1	2585	519.610059938118	0.290352846534
1	2590	520.87633090278	0.290352846534
1	2595	521.316027167651	0.290352846534
1	2600	521.871667168225	0.290352846534
1	2605	522.296559659627	0.290352846534
1	2610	522.850814110022	0.290352846534
1	2615	524.002913557501	0.290352846534
1	2620	526.219360756834	0.290352846534
1	2625	526.784822835271	0.290352846534
1	2630	527.444240053624	0.290352846534
1	2635	528.518721996888	0.290352846534
1	2640	529.015996165859	0.290352846534
1	2645	529.951600720826	0.290352846534
1	2652	530.764767599679	0.290352846534
1	2655	531.055120446213	0.40031730949
1	2660	533.098753375094	0.290352846534
1	2665	533.669559621461	0.290352846534
1	2670	534.886593701873	0.290352846534
1	2675	535.667337718919	0.290352846534
1	2680	537.380058925564	0.290352846534
1	2685	537.775605901386	0.290352846534
1	2690	539.189239742913	0.290352846534
1	2697	540.617905809789	0.290352846534
1	2700	540.908258656323	0.329738138144
1	2705	542.074014564391	0.290352846534
1	2710	545.11229607959	0.290352846534
1	2717	548.01902953975	0.290352846534
1	2720	548.309382386284	0.424242611928
1	2725	549.277860537414	0.290352846534
1	2730	549.929925915228	0.290352846534
1	2737	551.050420456296	0.290352846534
1	2740	551.34077330283	0.505796922554
1	2745	552.142912979514	0.290352846534
1	2750	553.477281265702	0.290352846534
1	2755	557.22713777568	0.290352846534
1	2764	559.577648868094	0.290352846534
1	2767	559.868001714628	0.550610829854
1	2770	560.158354561162	0.624468735272
1	2777	560.945697431081	0.290352846534
1	2780	561.236050277615	0.470244960393
1	2785	563.721558154988	0.290352846534
1	2790	566.457249459648	0.290352846534
1	2795	566.853563427953	0.290352846534
1	2802	568.131280085182	0.290352846534
1	2805	568.421632931716	0.353586363885
1	2810	569.161353826719	0.290352846534
1	2816	569.684638949519	0.290352846534
1	2823	572.11133546063	0.290352846534
1	2826	572.401688307164	0.443726324351
1	2831	573.308135375568	0.290352846534
1	2836	574.366542078999	0.290352846534
1	2841	574.664715791139	0.290352846534
1	2846	575.587532208224	0.290352846534
1	2853	577.534594107051	0.290352846534
1	2856	577.824946953585	0.326492029117
1	2861	578.628019897191	0.290352846534
1	2866	579.911214841987	0.290352846534
1	2871	581.524435473692	0.290352846534
1	2876	581.916736568285	0.290352846534
1	2881	584.321529277362	0.290352846534
1	2888	585.41143502523	0.290352846534
1	2893	585.701787871764	0.538370723324
1	2896	585.992140718298	0.463506918094
1	2901	587.499387423956	0.290352846534
1	2906	588.752969890148	0.290352846534
1	2911	589.151052584065	0.290352846534
1	2916	589.496900208531	0.290352846534
1	2921	592.451980908785	0.290352846534
1	2928	595.220607679029	0.290352846534
1	2931	595.510960525563	0.297784506783
1	2936	597.844572488763	0.290352846534
1	2941	599.1792425827	0.290352846534
1	2946	600.761700272919	0.290352846534
1	2951	603.142541892893	0.290352846534
1	2958	604.336350768745	0.290352846534
1	2961	604.626703615279	0.33210911782
1	2968	606.287323075398	0.290352846534
1	2971	606.577675921932	0.462461376746
1	2976	606.988112668215	0.290352846534
1	2983	607.925517198423	0.290352846534
1	2988	608.215870044957	0.379755797459
1	2993	608.506222891491	0.458064193245
1	2996	608.796575738025	0.52786431943
1	3001	609.361602677012	0.290352846534
1	3008	610.414427147326	0.290352846534
1	3013	610.70477999386	0.441889590579
1	3016	610.995132840394	0.518257625554
1	3023	612.251407832685	0.290352846534
1	3026	612.541760679219	0.307340313667
1	3031	614.231137279112	0.290352846534
1	3038	616.853510871891	0.290352846534
1	3043	617.143863718425	0.301535935015
1	3046	617.434216564959	0.438514156561
1	3051	618.550971215639	0.290352846534
1	3056	621.36720025903	0.290352846534
1	3061	621.67631934382	0.290352846534
1	3066	625.660672500701	0.290352846534
1	3071	626.25584839675	0.290352846534
1	3078	626.845503861127	0.290352846534
1	3081	627.135856707661	0.537598508283
1	3088	627.512776566061	0.290352846534
1	3091	627.803129412595	0.34697705191
1	3096	628.367130732161	0.290352846534
1	3103	630.861621259175	0.290352846534
1	3106	631.151974105709	0.301728460559
1	3111	633.014129781033	0.290352846534
1	3116	633.927661983702	0.290352846534
1	3121	634.871072976476	0.290352846534
1	3126	635.473665874442	0.290352846534
1	3131	637.490040057889	0.290352846534
1	3136	637.932574239824	0.290352846534
1	3141	638.334738573634	0.290352846534
1	3148	638.650519424254	0.290352846534
1	3151	638.940872270788	0.554049291168
1	3156	639.398935127497	0.290352846534
1	3161	641.013666500263	0.290352846534
1	3169	641.992113772114	0.290352846534
1	3174	642.282466618648	0.290708631814
1	3177	642.572819465182	0.5706815178
1	3182	643.480424171534	0.290352846534
1	3189	644.445096667024	0.290352846534
1	3192	644.735449513558	0.365436469525
1	3199	645.199473569988	0.290352846534
1	3202	645.489826416522	0.5526989833
1	3207	645.824882768082	0.290352846534
1	3212	646.77945383655	0.290352846534
1	3217	647.421997972337	0.290352846534
1	3222	648.086768697619	0.290352846534
1	3227	648.773122178153	0.290352846534
1	3234	649.841180360323	0.290352846534
1	3237	650.131533206857	0.515050156533
1	3242	650.496105642323	0.290352846534
1	3247	652.216328392174	0.290352846534
1	3252	652.985051275934	0.290352846534
1	3259	654.450764306787	0.290352846534
1	3262	654.741117153321	0.577784181782
1	3267	655.865435524228	0.290352846534
1	3272	657.360986982665	0.290352846534
1	3279	659.880501124814	0.290352846534
1	3284	660.170853971348	0.484516916416
1	3287	660.461206817882	0.406255188529
1	3292	663.022792908302	0.290352846534
1	3297	663.332017170774	0.290352846534
1	3304	664.603367459093	0.290352846534
1	3307	664.893720305627	0.529814139988
1	3314	665.932111865692	0.290352846534
1	3317	666.222464712226	0.43730902393
1	3322	667.213110625657	0.290352846534
1	3327	667.768270250634	0.290352846534
1	3332	668.936846813407	0.290352846534
1	3337	669.345547142716	0.290352846534
1	3342	672.016626248634	0.290352846534
1	3347	676.580224276715	0.290352846534
1	3352	677.115487500681	0.290352846534
1	3359	680.210326411058	0.290352846534
1	3362	680.500679257592	0.399664391019
1	3369	681.818731129706	0.290352846534
1	3372	682.10908397624	0.326311728748
1	3377	682.691420778174	0.290352846534
1	3382	684.322294981311	0.290352846534
1	3387	686.091073463329	0.290352846534
1	3392	687.495327021025	0.290352846534
1	3399	688.036316569916	0.290352846534
1	3404	688.32666941645	0.515794792872
1	3409	688.617022262984	0.419510346172
1	3412	688.907375109518	0.322121420434
1	3419	690.223871681249	0.290352846534
1	3422	690.514224527783	0.50517300592
1	3427	691.79142198204	0.290352846534
1	3432	692.423079045332	0.290352846534
1	3437	693.296159389531	0.290352846534
1	3444	695.705891215188	0.290352846534
1	3447	695.996244061722	0.338139267057
1	3452	697.232481138843	0.290352846534
1	3459	697.65049333034	0.290352846534
1	3462	697.940846176874	0.546599643844
1	3467	698.388901379539	0.290352846534
1	3472	699.057030759466	0.290352846534
1	3479	705.575434652938	0.290352846534
1	3484	705.865787499472	0.545149292558
1	3487	706.156140346006	0.484002543115
1	3492	707.906860883617	0.290352846534
1	3497	708.935841579354	0.290352846534
1	3504	709.623728082691	0.290352846534
1	3507	709.914080929225	0.414746973545
1	3512	711.645114669252	0.290352846534
1	3518	712.243893618734	0.290352846534
1	3523	712.706052236132	0.290352846534
1	3528	713.518416237086	0.290352846534
1	3533	716.529737185323	0.290352846534
1	3540	716.914718351725	0.290352846534
1	3543	717.205071198259	0.386887623609
1	3548	719.253389590296	0.290352846534
1	3553	720.314931154679	0.290352846534
1	3558	721.67005317475	0.290352846534
1	3563	722.122734336324	0.290352846534
1	3568	722.531779739616	0.290352846534
1	3573	724.524590940133	0.290352846534
1	3578	725.380230296281	0.290352846534
1	3587	726.205650630872	0.290352846534
1	3590	726.496003477406	0.449075959354
1	3593	726.78635632394	0.677148577792
1	3598	727.975238790345	0.290352846534
1	3603	730.769288261713	0.290352846534
1	3608	731.083954274752	0.290352846534
1	3613	732.109797626867	0.290352846534
1	3624	732.664449885538	0.290352846534
1	3627	732.954802732072	0.447454830532
1	3632	733.245155578606	0.737552171003
1	3635	733.53550842514	0.876489535647
1	3638	733.825861271674	0.868987999781
1	3643	735.304065355484	0.290352846534
1	3650	736.650889986229	0.290352846534
1	3653	736.941242832763	0.362835186416
1	3658	739.064778987009	0.290352846534
1	3663	739.580755039853	0.290352846534
1	3670	743.601421972314	0.290352846534
1	3675	743.891774818848	0.564885268413
1	3678	744.182127665382	0.555485989611
1	3683	747.567216869497	0.290352846534
1	3688	748.186918744604	0.290352846534
1	3693	749.064508017057	0.290352846534
1	3702	751.23345695285	0.290352846534
1	3705	751.523809799384	0.527585818098
1	3708	751.814162645918	0.812948964867
1	3713	752.181935660975	0.290352846534
1	3720	752.838469996324	0.290352846534
1	3725	753.128822842858	0.420026059476
1	3728	753.419175689392	0.416413095019
1	3733	755.001084795514	0.290352846534
1	3740	755.792044363915	0.290352846534
1	3743	756.082397210449	0.505162463257
1	3748	756.610650460905	0.290352846534
1	3753	757.029650083931	0.290352846534
1	3758	758.571264261031	0.290352846534
1	3765	760.019755310011	0.290352846534
1	3768	760.310108156545	0.416432636982
1	3773	761.304278889133	0.290352846534
1	3780	762.347052396644	0.290352846534
1	3783	762.637405243178	0.311068968349
1	3788	763.151099926835	0.290352846534
1	3793	765.228843558144	0.290352846534
1	3798	765.556059115529	0.290352846534
1	3803	767.498119744705	0.290352846534
1	3808	769.819608751938	0.290352846534
1	3813	771.769280113754	0.290352846534
1	3818	773.847016392685	0.290352846534
1	3823	777.368970560306	0.290352846534
1	3828	778.178238774327	0.290352846534
1	3833	779.473986221158	0.290352846534
1	3840	781.298053942023	0.290352846534
1	3843	781.588406788557	0.41566122751
1	3848	783.146661979001	0.290352846534
1	3853	784.107384833787	0.290352846534
1	3860	785.207849235514	0.290352846534
1	3865	785.498202082048	0.378622258638
1	3869	785.990583099555	0.721950301781
1	3874	786.540894222448	0.290352846534
1	3879	788.922297299997	0.290352846534
1	3884	789.394900466255	0.290352846534
1	3889	790.22283493659	0.290352846534
1	3894	790.808311863257	0.290352846534
1	3901	791.270048285329	0.290352846534
1	3904	791.560401131863	0.546035207864
1	3911	792.019237014404	0.290352846534
1	3914	792.309589860938	0.527154668967
1	3919	792.774747459228	0.290352846534
1	3926	793.594988851059	0.290352846534
1	3929	793.885341697593	0.564559662363
1	3936	795.117688145831	0.290352846534
1	3939	795.408040992365	0.362872249661
1	3944	796.177389093437	0.290352846534
1	3949	796.941121495629	0.290352846534
1	3954	799.256444112578	0.290352846534
1	3959	801.780624847911	0.290352846534
1	3966	802.076181039214	0.290352846534
1	3969	802.366533885748	0.393146706356
1	3974	803.781860473623	0.290352846534
1	3979	804.226649621717	0.290352846534
1	3984	805.387029935958	0.290352846534
1	3989	806.834371555648	0.290352846534
1	3996	807.776337289525	0.290352846534
1	3999	808.066690136059	0.477809026513
1	4004	811.900124257579	0.290352846534
1	4009	813.035006577468	0.290352846534
1	4014	813.851487932515	0.290352846534
1	4019	816.110499450814	0.290352846534
1	4024	817.423967868589	0.290352846534
1	4031	818.758479399607	0.290352846534
1	4034	819.048832246141	0.504541717873
1	4039	821.632423977511	0.290352846534
1	4044	822.291896153501	0.290352846534
1	4049	824.859047588923	0.290352846534
1	4054	826.074611798168	0.290352846534
1	4063	826.5848969483	0.290352846534
1	4066	826.875249794834	0.547752295948
1	4071	827.165602641368	0.814332960505
1	4074	827.455955487902	0.499600183004
1	4081	828.429297874694	0.290352846534
1	4086	828.719650721228	0.448636354585
1	4089	829.010003567762	0.516174968338
1	4094	829.755391185799	0.290352846534
1	4099	830.445369284754	0.290352846534
1	4104	831.338630134674	0.290352846534
1	4109	832.394021920374	0.290352846534
1	4114	834.855891339134	0.290352846534
1	4119	837.388106624116	0.290352846534
1	4126	838.809714050727	0.290352846534
1	4129	839.100066897261	0.528565791653
1	4134	839.967298778346	0.290352846534
1	4139	843.109274160176	0.290352846534
1	4144	846.041335254423	0.290352846534
1	4149	846.601429277157	0.290352846534
1	4154	847.811031561166	0.290352846534
1	4159	851.405801384137	0.290352846534
1	4164	851.92591642757	0.290352846534
1	4171	852.376299604481	0.290352846534
1	4174	852.666652451015	0.541885554031
1	4179	856.768328494785	0.290352846534
1	4184	858.489035694399	0.290352846534
1	4189	860.043331960771	0.290352846534
1	4194	860.475809063541	0.290352846534
1	4199	862.128675900681	0.290352846534
1	4204	862.780062149816	0.290352846534
1	4209	863.228435444442	0.290352846534
1	4214	864.147041564103	0.290352846534
1	4220	865.290307360171	0.290352846534
1	4225	865.950753721577	0.290352846534
1	4230	870.054321783217	0.290352846534
1	4235	874.070209727426	0.290352846534
1	4242	875.183403811743	0.290352846534
1	4245	875.473756658277	0.525222172435
1	4250	876.553638670426	0.290352846534
1	4255	879.092733988976	0.290352846534
1	4260	879.461596747688	0.290352846534
1	4267	882.159731119875	0.290352846534
1	4270	882.450083966409	0.31152242615
1	4275	883.426116317217	0.290352846534
1	4280	884.210670659411	0.290352846534
1	4285	885.721664105469	0.290352846534
1	4290	887.70087319083	0.290352846534
1	4297	888.961933745913	0.290352846534
1	4300	889.252286592447	0.305250190035
1	4305	889.573145187657	0.290352846534
1	4310	890.355072587928	0.290352846534
1	4315	892.381895900119	0.290352846534
1	4322	892.743782935689	0.290352846534
1	4327	893.034135782223	0.487784889941
1	4332	893.324488628757	0.407456639646
1	4335	893.614841475291	0.398226740261
1	4340	894.206678783507	0.290352846534
1	4345	896.058410715929	0.290352846534
1	4350	897.250165996673	0.290352846534
1	4359	898.246747469924	0.290352846534
1	4362	898.537100316458	0.367099868315
1	4367	898.827453162992	0.584362181565
1	4370	899.117806009526	0.499048427261
1	4375	902.271394276722	0.290352846534
1	4380	904.070354373113	0.290352846534
1	4385	904.737879737272	0.290352846534
1	4390	905.291527497592	0.290352846534
1	4395	906.232060797525	0.290352846534
1	4400	907.618195841602	0.290352846534
1	4407	908.241504991512	0.290352846534
1	4416	908.531857838046	0.44682370168
1	4419	908.82221068458	0.561077609279
1	4422	909.112563531114	0.776801603305
1	4425	909.402916377648	0.932829159534
1	4430	915.183489912698	0.290352846534
1	4437	915.979887045125	0.290352846534
1	4440	916.270239891659	0.322435662729
1	4445	916.582954701347	0.290352846534
1	4450	917.341316248535	0.290352846534
1	4455	917.712828044807	0.290352846534
1	4460	918.928425354194	0.290352846534
1	4465	919.403356380808	0.290352846534
1	4470	920.066122909292	0.290352846534
1	4477	920.690269594401	0.290352846534
1	4482	920.980622440935	0.290747499344
1	4485	921.270975287469	0.542229464053
1	4492	923.239363508263	0.290352846534
1	4495	923.529716354797	0.313269053263
1	4500	923.971410762455	0.290352846534
1	4505	924.266435845808	0.290352846534
1	4510	925.406912658289	0.290352846534
1	4515	929.833975864586	0.290352846534
1	4522	930.915774523815	0.290352846534
1	4525	931.206127370349	0.397525956256
1	4530	934.814005167967	0.290352846534
1	4535	935.593999037898	0.290352846534
1	4540	937.320619396757	0.290352846534
1	4545	939.137021908588	0.290352846534
1	4550	940.017783182039	0.290352846534
1	4555	940.507967666516	0.290352846534
1	4560	945.027163626651	0.290352846534
1	4567	951.227440640545	0.290352846534
1	4573	951.719821658052	0.519315568643
1	4576	952.010174504586	0.427842070093
1	4581	952.398318036693	0.290352846534
1	4586	954.376121717014	0.290352846534
1	4591	955.474098778429	0.290352846534
1	4596	957.66138681641	0.290352846534
1	4605	958.416269112292	0.290352846534
1	4608	958.706621958826	0.374447646807
1	4611	958.99697480536	0.611433057601
1	4616	960.646526630804	0.290352846534
1	4621	962.09423162762	0.290352846534
1	4626	962.691460997111	0.290352846534
1	4631	965.096534797963	0.290352846534
1	4636	965.427345967849	0.290352846534
1	4643	965.746552973848	0.290352846534
1	4646	966.036905820382	0.550383336683
1	4651	966.968222269769	0.290352846534
1	4656	967.497649575573	0.290352846534
1	4663	968.799224138241	0.290352846534
1	4666	969.089576984775	0.560586613101
1	4671	969.3902168525	0.290352846534
1	4676	971.30063990806	0.290352846534
1	4681	971.616607741386	0.290352846534
1	4688	972.063226229452	0.290352846534
1	4691	972.353579075986	0.50640529886
1	4698	973.086184432416	0.290352846534
1	4701	973.37653727895	0.345058853702
1	4706	974.256345740204	0.290352846534
1	4713	976.441821562751	0.290352846534
1	4718	976.732174409285	0.523452417032
1	4723	977.022527255819	0.344496387552
1	4726	977.312880102353	0.296342934525
1	4731	978.471647978072	0.290352846534
1	4736	978.893879144961	0.290352846534
1	4741	980.49826256541	0.290352846534
1	4746	982.147213117736	0.290352846534
1	4753	987.764346034712	0.290352846534
1	4756	988.054698881246	0.358382668149
1	4765	988.730205890323	0.290352846534
1	4770	989.020558736857	0.528314282756
1	4773	989.310911583391	0.75171628465
1	4776	989.601264429925	0.722359848416
1	4781	994.573810765695	0.290352846534
1	4786	995.314190515193	0.290352846534
1	4793	995.703895610937	0.290352846534
1	4796	995.994248457471	0.541515921995
1	4803	996.522924622425	0.290352846534
1	4806	996.813277468959	0.453630234169
1	4813	997.372620037629	0.290352846534
1	4816	997.662972884163	0.528041260271
1	4821	998.12504005861	0.290352846534
1	4826	998.663079041946	0.290352846534
1	4831	998.984308013444	0.290352846534
1	4836	999.667584186155	0.290352846534
2	5	0.491702574344	0
2	10	1.395200169481	0
2	15	2.14148215279	0
2	20	2.599782810939	0
2	25	5.377228230436	0
2	30	5.737534463066	0
2	35	6.199408213968	0
2	40	7.005140975072	0
2	45	8.136073018604	0
2	50	9.398527564728	0
2	55	10.95920625795	0
2	60	11.52335540773	0
2	65	13.360720118261	0
2	70	13.971218813864	0
2	79	14.930219302327	0
2	84	15.220572148861	0.232402811139
2	87	15.510924995395	0.485482047186
2	90	15.801277841929	0.372247672959
2	97	16.23787205397	0
2	102	16.528224900504	0.00894347219
2	105	16.818577747038	0.268888530896
2	112	17.15300505233	0
2	115	17.443357898864	0.072490761625
2	122	18.365922440809	0
2	125	18.656275287343	0.170207600198
2	132	18.950049486495	0
2	135	19.240402333029	0.067039505125
2	140	19.55558534082	0
2	147	21.553648233415	0
2	150	21.844001079949	0.033124129116
2	155	22.386705423534	0
2	160	23.16781957079	0
2	167	27.336110931435	0
2	170	27.626463777969	0.236948696555
2	175	28.442229604832	0
2	184	29.941717405247	0
2	187	30.232070251781	0.133129864202
2	190	30.522423098315	0.348663873385
2	195	30.952493233681	0
2	200	31.979468990933	0
2	205	33.18377576338	0
2	210	33.76278951227	0
2	215	34.845651294618	0
2	222	36.164532209889	0
2	225	36.454885056423	0.045437199591
2	230	36.909248316413	0
2	235	38.257151920065	0
2	240	39.363664658746	0
2	245	40.164607952956	0
2	250	40.960643361152	0
2	255	41.254436705982	0
2	264	44.036492333487	0
2	267	44.326845180021	0.133207633831
2	270	44.617198026555	0.33172243161
2	277	45.236110203462	0
2	280	45.526463049996	0.048464025755
2	285	50.392186017179	0
2	290	52.115988230158	0
2	295	52.609603872592	0
2	300	53.381661893316	0
2	305	55.409644042778	0
2	310	56.086902806013	0
2	315	57.491619265186	0
2	320	59.171297143796	0
2	327	61.707504623674	0
2	330	61.997857470208	0.184316944589
2	335	62.391724211135	0
2	340	63.23075527696	0
2	345	65.139801673616	0
2	350	68.70085856111	0
2	356	69.362394231546	0
2	363	70.31899697708	0
2	366	70.609349823614	0.004956909565
2	373	71.304253065391	0
2	376	71.594605911925	0.236013443365
2	381	72.01742198271	0
2	386	72.867127115973	0
2	391	74.844699661224	0
2	396	75.664313587261	0
2	401	76.336742540586	0
2	406	76.814473211899	0
2	413	77.213461039458	0
2	416	77.503813885992	0.127695297156
2	421	78.844430735379	0
2	426	79.167792775479	0
2	431	81.493058364268	0
2	436	81.918219964646	0
2	443	84.127030672038	0
2	446	84.417383518572	0.089481465768
2	451	84.960312248204	0
2	456	85.266178298639	0
2	461	85.950668976294	0
2	466	87.801983419854	0
2	473	89.369652878103	0
2	476	89.660005724637	0.162403379593
2	483	90.857781800747	0
2	486	91.148134647281	0.277613620934
2	491	92.150683458589	0
2	496	93.13283641803	0
2	501	93.821393321073	0
2	506	94.123173651808	0
2	511	94.510654842819	0
2	516	95.063156923028	0
2	521	95.661731303024	0
2	526	96.538236959141	0
2	531	97.151350756472	0
2	538	98.340588677	0
2	541	98.630941523534	0.256647373518
2	546	99.638845036569	0
2	551	100.073960846226	0
2	558	100.968122077502	0
2	561	101.258474924036	0.132423629021
2	568	101.966516559404	0
2	571	102.256869405938	0.28919501729
2	578	103.583394542769	0
2	581	103.873747389303	0.018949840734
2	588	107.007894581468	0
2	591	107.298247428002	0.281283344573
2	596	108.055678314072	0
2	603	108.37265626361	0
2	606	108.663009110144	0.031998683798
2	611	109.143656928596	0
2	616	110.639261921081	0
2	621	113.140023381722	0
2	626	114.103922031362	0
2	631	114.64806528459	0
2	640	118.28259008378	0
2	645	118.572942930314	0.267835039022
2	650	118.863295776848	0.380432173477
2	653	119.153648623382	0.565644295763
2	656	119.444001469916	0.446240735406
2	661	120.351867107904	0
2	666	122.073965291443	0
2	671	125.080650911248	0
2	678	127.028541803851	0
2	681	127.318894650385	0.257524304095
2	690	127.870210697989	0
2	693	128.160563544523	0.164420123006
2	698	128.450916391057	0.441675315783
2	701	128.741269237591	0.085964069351
2	707	129.650273974976	0
2	712	130.772229129184	0
2	717	131.084556004605	0
2	722	133.295604180868	0
2	727	133.995359370147	0
2	732	134.311032066034	0
2	737	134.666415519548	0
2	742	140.837559178197	0
2	747	141.451032838324	0
2	752	143.70708568508	0
2	757	144.080004085029	0
2	762	146.504910130748	0
2	767	147.968129426019	0
2	774	149.233167452847	0
2	777	149.523520299381	0.033610642777
2	782	150.188982913813	0
2	787	152.54627593691	0
2	792	153.545498777684	0
2	797	156.193895693342	0
2	802	157.664619402407	0
2	809	158.440885827791	0
2	812	158.731238674325	0.200804970232
2	817	159.885987535105	0
2	822	160.43258576707	0
2	827	161.771852252401	0
2	832	162.846877760038	0
2	839	164.487071326212	0
2	842	164.777424172746	0.215454867202
2	847	166.46341721685	0
2	854	167.590795394612	0
2	861	167.881148241146	0.194302309496
2	866	168.17150108768	0.249353342977
2	869	168.461853934214	0.520335667394
2	872	168.752206780748	0.313953331597
2	877	170.421834837157	0
2	882	171.192484698847	0
2	887	172.143990917202	0
2	892	172.489168666407	0
2	899	172.884378953065	0
2	902	173.174731799599	0.251559450901
2	911	176.224143805963	0
2	916	176.514496652497	0.219432765595
2	919	176.804849499031	0.418385739644
2	922	177.095202345565	0.49175986108
2	927	177.847314816162	0
2	932	178.599730151583	0
2	937	181.799759911154	0
2	942	182.674352596344	0
2	947	183.97580232099	0
2	952	184.49937999779	0
2	957	185.070544501917	0
2	962	185.462683391846	0
2	967	189.530558376403	0
2	974	190.358772236142	0
2	979	190.649125082676	0.003827987497
2	982	190.93947792921	0.013513984163
2	987	191.618680193071	0
2	992	192.94274634534	0
2	997	193.769954485802	0
2	1002	196.492705175051	0
2	1009	197.551549399543	0
2	1014	197.841902246077	0.2454015391
2	1017	198.132255092611	0.239332660305
2	1022	201.348041335237	0
2	1027	201.737041393326	0
2	1032	202.047406184828	0
2	1041	202.948643095942	0
2	1044	203.238995942476	0.233922448813
2	1049	203.52934878901	0.386662421036
2	1052	203.819701635544	0.092935280449
2	1058	205.070058594174	0
2	1063	208.820319402976	0
2	1068	209.821599687445	0
2	1075	210.887888792917	0
2	1078	211.178241639451	0.183197786922
2	1085	212.129140833414	0
2	1088	212.419493679948	0.135617595348
2	1095	213.37111225746	0
2	1100	213.661465103994	0.138522142389
2	1105	213.951817950528	0.051773718524
2	1108	214.242170797062	0.244126801169
2	1117	214.942076485634	0
2	1122	215.232429332168	0.072076805046
2	1129	215.522782178702	0.362169004454
2	1134	215.813135025236	0.298250807281
2	1141	216.10348787177	0.546711201094
2	1144	216.393840718304	0.67774266093
2	1147	216.684193564838	0.774077471566
2	1150	216.974546411372	0.731879298441
2	1156	217.3222341181	0
2	1161	218.589893738102	0
2	1166	219.566668992398	0
2	1171	220.686365545814	0
2	1176	222.037501998748	0
2	1181	223.930703372847	0
2	1188	225.042072612359	0
2	1191	225.332425458893	0.036247424171
2	1196	226.87833362372	0
2	1201	227.626059683202	0
2	1206	228.381249100153	0
2	1211	228.901136974194	0
2	1216	230.132024653777	0
2	1221	230.837049078063	0
2	1228	231.742720244997	0
2	1231	232.033073091531	0.199787198607
2	1236	232.510620703234	0
2	1241	233.747342198203	0
2	1250	235.474076482447	0
2	1253	235.764429328981	0.120248858863
2	1256	236.054782175515	0.374487561381
2	1261	240.621308772082	0
2	1266	241.280677008981	0
2	1273	241.826078793307	0
2	1276	242.116431639841	0.206836457703
2	1281	246.207226266677	0
2	1288	246.644164741273	0
2	1291	246.934517587807	0.066804022654
2	1296	247.71449705568	0
2	1301	249.101267062277	0
2	1306	251.440493352773	0
2	1311	254.692507272758	0
2	1316	255.984753287201	0
2	1321	261.007734902891	0
2	1326	262.106448432146	0
2	1333	264.405239748476	0
2	1336	264.69559259501	0.192390935274
2	1341	265.341309556208	0
2	1346	266.786186000037	0
2	1353	267.685064373505	0
2	1356	267.975417220039	0.288059318776
2	1361	271.276464603428	0
2	1368	273.635793580859	0
2	1371	273.926146427393	0.002285070384
2	1376	274.64165888782	0
2	1381	276.090084335925	0
2	1386	279.912737873263	0
2	1391	281.088961352095	0
2	1396	282.329316428028	0
2	1405	283.040425380951	0
2	1408	283.330778227485	0.123576009089
2	1412	283.823159244992	0.560909910154
2	1417	285.411227475922	0
2	1422	285.709758600334	0
2	1431	286.958445215679	0
2	1434	287.248798062213	0.207363515628
2	1437	287.539150908747	0.458176580549
2	1442	288.692654671338	0
2	1447	291.718655392772	0
2	1452	292.229641009833	0
2	1457	293.419375987795	0
2	1462	293.728633367867	0
2	1467	294.12652371293	0
2	1472	295.303222500081	0
2	1477	296.116949159974	0
2	1482	297.211903725126	0
2	1487	298.088664065556	0
2	1492	299.909091864163	0
2	1497	301.040859977704	0
2	1502	303.893284508083	0
2	1511	304.611458883973	0
2	1514	304.901811730507	0.1249710421
2	1517	305.192164577041	0.386291140479
2	1524	307.004663153375	0
2	1527	307.295015999909	0.104404203579
2	1532	309.700720833503	0
2	1539	310.208644243807	0
2	1542	310.498997090341	0.168044930293
2	1547	311.150538482457	0
2	1552	313.105569004674	0
2	1557	316.044701183673	0
2	1562	319.143638218484	0
2	1567	320.099161448397	0
2	1574	322.567756490227	0
2	1577	322.858109336761	0.245650082928
2	1582	323.355255666637	0
2	1587	323.73442265274	0
2	1594	324.800453461795	0
2	1597	325.090806308329	0.203338636288
2	1602	325.545513130163	0
2	1607	326.12076513149	0
2	1612	327.053055037618	0
2	1619	329.139728645798	0
2	1626	329.430081492332	0.007534124941
2	1629	329.720434338866	0.087978745253
2	1632	330.0107871854	0.3292469765
2	1637	332.588682708251	0
2	1646	335.337085539949	0
2	1651	335.627438386483	0.26942324128
2	1656	335.917791233017	0.450892439585
2	1659	336.208144079551	0.410749730605
2	1664	336.498496926085	0.517577108845
2	1667	336.788849772619	0.074936104495
2	1672	337.202716218001	0
2	1677	338.177219176846	0
2	1682	338.783412236779	0
2	1687	340.18338427111	0
2	1692	341.798345663964	0
2	1699	342.627517747291	0
2	1702	342.917870593825	0.156928054328
2	1707	344.532958593822	0
2	1712	344.892050260593	0
2	1717	346.148137388626	0
2	1722	346.958325569851	0
2	1727	347.680519536796	0
2	1732	348.397785863313	0
2	1737	348.86562183186	0
2	1742	349.223160358278	0
2	1747	349.536366886061	0
2	1754	350.069547098537	0
2	1757	350.359899945071	0.160513260259
2	1763	353.534514416515	0
2	1768	354.077427920423	0
2	1775	354.759838313593	0
2	1778	355.050191160127	0.176151887628
2	1783	355.672788651396	0
2	1788	356.924048848179	0
2	1793	358.430203060312	0
2	1800	361.081897844065	0
2	1803	361.372250690599	0.016765344455
2	1808	361.935350604346	0
2	1813	362.548654783622	0
2	1820	363.131185909236	0
2	1823	363.42153875577	0.287439132879
2	1830	364.775202433261	0
2	1833	365.065555279795	0.16051835357
2	1838	365.516818442692	0
2	1843	366.814253954286	0
2	1848	367.949874464686	0
2	1853	368.245341840946	0
2	1858	368.536527273202	0
2	1865	369.552880779344	0
2	1868	369.843233625878	0.066830259857
2	1873	370.896284739284	0
2	1878	371.499598986932	0
2	1883	372.091881734984	0
2	1890	374.655395896994	0
2	1893	374.945748743528	0.028587075827
2	1898	381.571863174394	0
2	1905	382.128650405612	0
2	1908	382.419003252146	0.188560209308
2	1913	382.870998500043	0
2	1918	384.381706419082	0
2	1923	384.939410640853	0
2	1930	385.329520331324	0
2	1933	385.619873177858	0.283314406818
2	1938	386.096990551618	0
2	1943	387.121732102068	0
2	1948	387.644036208918	0
2	1953	388.151752021817	0
2	1958	388.774876503541	0
2	1963	389.949223424367	0
2	1968	390.332419991793	0
2	1973	392.917600541925	0
2	1978	396.70941102829	0
2	1985	399.20699549774	0
2	1992	399.497348344274	0.021677619866
2	1995	399.787701190808	0.236170587738
2	1998	400.078054037342	0.434176344287
2	2003	401.291383382568	0
2	2008	403.133699122905	0
2	2015	403.538326510658	0
2	2018	403.828679357192	0.259093159731
2	2023	404.526742694345	0
2	2028	405.585643314938	0
2	2033	406.157011455791	0
2	2038	408.106707165838	0
2	2043	408.536769342379	0
2	2048	412.552363161753	0
2	2053	415.376957637824	0
2	2058	416.927151639304	0
2	2067	418.490185713405	0
2	2070	418.780538559939	0.228990608263
2	2075	419.070891406473	0.319567937449
2	2078	419.361244253007	0.100252368205
2	2083	420.109825920047	0
2	2088	421.167410219558	0
2	2093	421.460044615624	0
2	2098	422.786695663115	0
2	2103	423.247280334074	0
2	2108	423.591589022334	0
2	2114	424.100036835011	0
2	2119	424.418025683091	0
2	2124	425.912788352816	0
2	2129	434.158430112337	0
2	2134	434.78023671664	0
2	2141	435.40187958648	0
2	2146	435.692232433014	0.112832693588
2	2149	435.982585279548	0.073031417063
2	2156	437.478722802876	0
2	2159	437.76907564941	0.137137564113
2	2166	439.178475070972	0
2	2169	439.468827917506	0.125399334891
2	2174	442.61127291627	0
2	2179	443.494809963926	0
2	2184	443.943030439288	0
2	2189	446.865709702865	0
2	2194	448.307684610657	0
2	2201	449.72450631914	0
2	2204	450.014859165674	0.154702787221
2	2209	451.630069650712	0
2	2216	451.964982500308	0
2	2219	452.255335346842	0.144194305567
2	2226	454.429114069198	0
2	2229	454.719466915732	0.052085919472
2	2234	455.239636311829	0
2	2239	457.537271471955	0
2	2246	458.181965776415	0
2	2249	458.472318622949	0.092623979786
2	2258	458.839215318815	0
2	2261	459.129568165349	0.119801890033
2	2264	459.419921011883	0.368350740596
2	2271	460.044644123521	0
2	2274	460.334996970055	0.083086101828
2	2279	461.914364408996	0
2	2284	465.857186618951	0
2	2293	469.868958029898	0
2	2296	470.159310876432	0.279624132448
2	2303	470.449663722966	0.426884766014
2	2308	470.7400165695	0.12183396882
2	2311	471.030369416034	0.364693721499
2	2314	471.320722262568	0.43447452524
2	2319	471.702953626018	0
2	2324	472.048546495671	0
2	2329	472.52491661554	0
2	2334	473.690203015427	0
2	2339	474.399876376212	0
2	2344	476.271168539611	0
2	2349	479.694495770451	0
2	2354	481.334185293503	0
2	2361	481.850429630079	0
2	2364	482.140782476613	0.025943612515
2	2369	483.960554351241	0
2	2374	484.767018299081	0
2	2379	485.404964880169	0
2	2384	485.853980466887	0
2	2389	486.399060323986	0
2	2394	487.053820224071	0
2	2401	487.692044447212	0
2	2404	487.982397293746	0.132610241444
2	2409	488.540089250098	0
2	2418	490.676264432405	0
2	2421	490.966617278939	0.135513196315
2	2424	491.256970125473	0.323316194038
2	2429	491.677641167065	0
2	2434	491.995871546806	0
2	2441	493.497299109353	0
2	2444	493.787651955887	0.049999869947
2	2451	496.168747507212	0
2	2454	496.459100353746	0.141959642853
2	2459	497.902724023597	0
2	2465	498.395105041104	0.160222181749
2	2470	499.598679709052	0
2	2475	500.509895510652	0
2	2482	501.017890990548	0
2	2485	501.308243837082	0.192238456981
2	2490	501.633084791254	0
2	2497	502.553399967126	0
2	2500	502.84375281366	0.04177996204
2	2505	503.249537544672	0
2	2512	503.861312610046	0
2	2515	504.15166545658	0.00385677973
2	2522	505.043333074712	0
2	2525	505.333685921246	0.076582699805
2	2530	507.629826443476	0
2	2535	509.236362147865	0
2	2540	511.345759544297	0
2	2545	513.433667490406	0
2	2552	514.192047316948	0
2	2555	514.482400163482	0.196592138231
2	2560	515.043938898376	0
2	2567	515.68906465303	0
2	2572	515.979417499564	0.285828998704
2	2575	516.269770346098	0.264256115734
2	2580	517.20271198842	0
2	2585	519.610059938118	0
2	2590	520.87633090278	0
2	2595	521.316027167651	0
2	2600	521.871667168225	0
2	2605	522.296559659627	0
2	2610	522.850814110022	0
2	2615	524.002913557501	0
2	2620	526.219360756834	0
2	2625	526.784822835271	0
2	2630	527.444240053624	0
2	2635	528.518721996888	0
2	2640	529.015996165859	0
2	2645	529.951600720826	0
2	2652	530.764767599679	0
2	2655	531.055120446213	0.109964462956
2	2660	533.098753375094	0
2	2665	533.669559621461	0
2	2670	534.886593701873	0
2	2675	535.667337718919	0
2	2680	537.380058925564	0
2	2685	537.775605901386	0
2	2690	539.189239742913	0
2	2697	540.617905809789	0
2	2700	540.908258656323	0.03938529161
2	2705	542.074014564391	0
2	2710	545.11229607959	0
2	2717	548.01902953975	0
2	2720	548.309382386284	0.133889765394
2	2725	549.277860537414	0
2	2730	549.929925915228	0
2	2737	551.050420456296	0
2	2740	551.34077330283	0.21544407602
2	2745	552.142912979514	0
2	2750	553.477281265702	0
2	2755	557.22713777568	0
2	2764	559.577648868094	0
2	2767	559.868001714628	0.26025798332
2	2770	560.158354561162	0.334115888738
2	2777	560.945697431081	0
2	2780	561.236050277615	0.179892113859
2	2785	563.721558154988	0
2	2790	566.457249459648	0
2	2795	566.853563427953	0
2	2802	568.131280085182	0
2	2805	568.421632931716	0.063233517351
2	2810	569.161353826719	0
2	2816	569.684638949519	0
2	2823	572.11133546063	0
2	2826	572.401688307164	0.153373477817
2	2831	573.308135375568	0
2	2836	574.366542078999	0
2	2841	574.664715791139	0
2	2846	575.587532208224	0
2	2853	577.534594107051	0
2	2856	577.824946953585	0.036139182583
2	2861	578.628019897191	0
2	2866	579.911214841987	0
2	2871	581.524435473692	0
2	2876	581.916736568285	0
2	2881	584.321529277362	0
2	2888	585.41143502523	0
2	2893	585.701787871764	0.24801787679
2	2896	585.992140718298	0.17315407156
2	2901	587.499387423956	0
2	2906	588.752969890148	0
2	2911	589.151052584065	0
2	2916	589.496900208531	0
2	2921	592.451980908785	0
2	2928	595.220607679029	0
2	2931	595.510960525563	0.007431660249
2	2936	597.844572488763	0
2	2941	599.1792425827	0
2	2946	600.761700272919	0
2	2951	603.142541892893	0
2	2958	604.336350768745	0
2	2961	604.626703615279	0.041756271286
2	2968	606.287323075398	0
2	2971	606.577675921932	0.172108530212
2	2976	606.988112668215	0
2	2983	607.925517198423	0
2	2988	608.215870044957	0.089402950925
2	2993	608.506222891491	0.167711346711
2	2996	608.796575738025	0.237511472896
2	3001	609.361602677012	0
2	3008	610.414427147326	0
2	3013	610.70477999386	0.151536744045
2	3016	610.995132840394	0.22790477902
2	3023	612.251407832685	0
2	3026	612.541760679219	0.016987467133
2	3031	614.231137279112	0
2	3038	616.853510871891	0
2	3043	617.143863718425	0.011183088481
2	3046	617.434216564959	0.148161310027
2	3051	618.550971215639	0
2	3056	621.36720025903	0
2	3061	621.67631934382	0
2	3066	625.660672500701	0
2	3071	626.25584839675	0
2	3078	626.845503861127	0
2	3081	627.135856707661	0.247245661749
2	3088	627.512776566061	0
2	3091	627.803129412595	0.056624205376
2	3096	628.367130732161	0
2	3103	630.861621259175	0
2	3106	631.151974105709	0.011375614025
2	3111	633.014129781033	0
2	3116	633.927661983702	0
2	3121	634.871072976476	0
2	3126	635.473665874442	0
2	3131	637.490040057889	0
2	3136	637.932574239824	0
2	3141	638.334738573634	0
2	3148	638.650519424254	0
2	3151	638.940872270788	0.263696444634
2	3156	639.398935127497	0
2	3161	641.013666500263	0
2	3169	641.992113772114	0
2	3174	642.282466618648	0.00035578528
2	3177	642.572819465182	0.280328671266
2	3182	643.480424171534	0
2	3189	644.445096667024	0
2	3192	644.735449513558	0.075083622991
2	3199	645.199473569988	0
2	3202	645.489826416522	0.262346136766
2	3207	645.824882768082	0
2	3212	646.77945383655	0
2	3217	647.421997972337	0
2	3222	648.086768697619	0
2	3227	648.773122178153	0
2	3234	649.841180360323	0
2	3237	650.131533206857	0.224697309999
2	3242	650.496105642323	0
2	3247	652.216328392174	0
2	3252	652.985051275934	0
2	3259	654.450764306787	0
2	3262	654.741117153321	0.287431335248
2	3267	655.865435524228	0
2	3272	657.360986982665	0
2	3279	659.880501124814	0
2	3284	660.170853971348	0.194164069882
2	3287	660.461206817882	0.115902341995
2	3292	663.022792908302	0
2	3297	663.332017170774	0
2	3304	664.603367459093	0
2	3307	664.893720305627	0.239461293454
2	3314	665.932111865692	0
2	3317	666.222464712226	0.146956177396
2	3322	667.213110625657	0
2	3327	667.768270250634	0
2	3332	668.936846813407	0
2	3337	669.345547142716	0
2	3342	672.016626248634	0
2	3347	676.580224276715	0
2	3352	677.115487500681	0
2	3359	680.210326411058	0
2	3362	680.500679257592	0.109311544485
2	3369	681.818731129706	0
2	3372	682.10908397624	0.035958882214
2	3377	682.691420778174	0
2	3382	684.322294981311	0
2	3387	686.091073463329	0
2	3392	687.495327021025	0
2	3399	688.036316569916	0
2	3404	688.32666941645	0.225441946338
2	3409	688.617022262984	0.129157499638
2	3412	688.907375109518	0.0317685739
2	3419	690.223871681249	0
2	3422	690.514224527783	0.214820159386
2	3427	691.79142198204	0
2	3432	692.423079045332	0
2	3437	693.296159389531	0
2	3444	695.705891215188	0
2	3447	695.996244061722	0.047786420523
2	3452	697.232481138843	0
2	3459	697.65049333034	0
2	3462	697.940846176874	0.25624679731
2	3467	698.388901379539	0
2	3472	699.057030759466	0
2	3479	705.575434652938	0
2	3484	705.865787499472	0.254796446024
2	3487	706.156140346006	0.193649696581
2	3492	707.906860883617	0
2	3497	708.935841579354	0
2	3504	709.623728082691	0
2	3507	709.914080929225	0.124394127011
2	3512	711.645114669252	0
2	3518	712.243893618734	0
2	3523	712.706052236132	0
2	3528	713.518416237086	0
2	3533	716.529737185323	0
2	3540	716.914718351725	0
2	3543	717.205071198259	0.096534777075
2	3548	719.253389590296	0
2	3553	720.314931154679	0
2	3558	721.67005317475	0
2	3563	722.122734336324	0
2	3568	722.531779739616	0
2	3573	724.524590940133	0
2	3578	725.380230296281	0
2	3587	726.205650630872	0
2	3590	726.496003477406	0.15872311282
2	3593	726.78635632394	0.386795731258
2	3598	727.975238790345	0
2	3603	730.769288261713	0
2	3608	731.083954274752	0
2	3613	732.109797626867	0
2	3624	732.664449885538	0
2	3627	732.954802732072	0.157101983998
2	3632	733.245155578606	0.447199324469
2	3635	733.53550842514	0.586136689113
2	3638	733.825861271674	0.578635153247
2	3643	735.304065355484	0
2	3650	736.650889986229	0
2	3653	736.941242832763	0.072482339882
2	3658	739.064778987009	0
2	3663	739.580755039853	0
2	3670	743.601421972314	0
2	3675	743.891774818848	0.274532421879
2	3678	744.182127665382	0.265133143077
2	3683	747.567216869497	0
2	3688	748.186918744604	0
2	3693	749.064508017057	0
2	3702	751.23345695285	0
2	3705	751.523809799384	0.237232971564
2	3708	751.814162645918	0.522596118333
2	3713	752.181935660975	0
2	3720	752.838469996324	0
2	3725	753.128822842858	0.129673212942
2	3728	753.419175689392	0.126060248485
2	3733	755.001084795514	0
2	3740	755.792044363915	0
2	3743	756.082397210449	0.214809616723
2	3748	756.610650460905	0
2	3753	757.029650083931	0
2	3758	758.571264261031	0
2	3765	760.019755310011	0
2	3768	760.310108156545	0.126079790448
2	3773	761.304278889133	0
2	3780	762.347052396644	0
2	3783	762.637405243178	0.020716121815
2	3788	763.151099926835	0
2	3793	765.228843558144	0
2	3798	765.556059115529	0
2	3803	767.498119744705	0
2	3808	769.819608751938	0
2	3813	771.769280113754	0
2	3818	773.847016392685	0
2	3823	777.368970560306	0
2	3828	778.178238774327	0
2	3833	779.473986221158	0
2	3840	781.298053942023	0
2	3843	781.588406788557	0.125308380976
2	3848	783.146661979001	0
2	3853	784.107384833787	0
2	3860	785.207849235514	0
2	3865	785.498202082048	0.088269412104
2	3869	785.990583099555	0.431597455247
2	3874	786.540894222448	0
2	3879	788.922297299997	0
2	3884	789.394900466255	0
2	3889	790.22283493659	0
2	3894	790.808311863257	0
2	3901	791.270048285329	0
2	3904	791.560401131863	0.25568236133
2	3911	792.019237014404	0
2	3914	792.309589860938	0.236801822433
2	3919	792.774747459228	0
2	3926	793.594988851059	0
2	3929	793.885341697593	0.274206815829
2	3936	795.117688145831	0
2	3939	795.408040992365	0.072519403127
2	3944	796.177389093437	0
2	3949	796.941121495629	0
2	3954	799.256444112578	0
2	3959	801.780624847911	0
2	3966	802.076181039214	0
2	3969	802.366533885748	0.102793859822
2	3974	803.781860473623	0
2	3979	804.226649621717	0
2	3984	805.387029935958	0
2	3989	806.834371555648	0
2	3996	807.776337289525	0
2	3999	808.066690136059	0.187456179979
2	4004	811.900124257579	0
2	4009	813.035006577468	0
2	4014	813.851487932515	0
2	4019	816.110499450814	0
2	4024	817.423967868589	0
2	4031	818.758479399607	0
2	4034	819.048832246141	0.214188871339
2	4039	821.632423977511	0
2	4044	822.291896153501	0
2	4049	824.859047588923	0
2	4054	826.074611798168	0
2	4063	826.5848969483	0
2	4066	826.875249794834	0.257399449414
2	4071	827.165602641368	0.523980113971
2	4074	827.455955487902	0.20924733647
2	4081	828.429297874694	0
2	4086	828.719650721228	0.158283508051
2	4089	829.010003567762	0.225822121804
2	4094	829.755391185799	0
2	4099	830.445369284754	0
2	4104	831.338630134674	0
2	4109	832.394021920374	0
2	4114	834.855891339134	0
2	4119	837.388106624116	0
2	4126	838.809714050727	0
2	4129	839.100066897261	0.238212945119
2	4134	839.967298778346	0
2	4139	843.109274160176	0
2	4144	846.041335254423	0
2	4149	846.601429277157	0
2	4154	847.811031561166	0
2	4159	851.405801384137	0
2	4164	851.92591642757	0
2	4171	852.376299604481	0
2	4174	852.666652451015	0.251532707497
2	4179	856.768328494785	0
2	4184	858.489035694399	0
2	4189	860.043331960771	0
2	4194	860.475809063541	0
2	4199	862.128675900681	0
2	4204	862.780062149816	0
2	4209	863.228435444442	0
2	4214	864.147041564103	0
2	4220	865.290307360171	0
2	4225	865.950753721577	0
2	4230	870.054321783217	0
2	4235	874.070209727426	0
2	4242	875.183403811743	0
2	4245	875.473756658277	0.234869325901
2	4250	876.553638670426	0
2	4255	879.092733988976	0
2	4260	879.461596747688	0
2	4267	882.159731119875	0
2	4270	882.450083966409	0.021169579616
2	4275	883.426116317217	0
2	4280	884.210670659411	0
2	4285	885.721664105469	0
2	4290	887.70087319083	0
2	4297	888.961933745913	0
2	4300	889.252286592447	0.014897343501
2	4305	889.573145187657	0
2	4310	890.355072587928	0
2	4315	892.381895900119	0
2	4322	892.743782935689	0
2	4327	893.034135782223	0.197432043407
2	4332	893.324488628757	0.117103793112
2	4335	893.614841475291	0.107873893727
2	4340	894.206678783507	0
2	4345	896.058410715929	0
2	4350	897.250165996673	0
2	4359	898.246747469924	0
2	4362	898.537100316458	0.076747021781
2	4367	898.827453162992	0.294009335031
2	4370	899.117806009526	0.208695580727
2	4375	902.271394276722	0
2	4380	904.070354373113	0
2	4385	904.737879737272	0
2	4390	905.291527497592	0
2	4395	906.232060797525	0
2	4400	907.618195841602	0
2	4407	908.241504991512	0
2	4416	908.531857838046	0.156470855146
2	4419	908.82221068458	0.270724762745
2	4422	909.112563531114	0.486448756771
2	4425	909.402916377648	0.642476313
2	4430	915.183489912698	0
2	4437	915.979887045125	0
2	4440	916.270239891659	0.032082816195
2	4445	916.582954701347	0
2	4450	917.341316248535	0
2	4455	917.712828044807	0
2	4460	918.928425354194	0
2	4465	919.403356380808	0
2	4470	920.066122909292	0
2	4477	920.690269594401	0
2	4482	920.980622440935	0.00039465281
2	4485	921.270975287469	0.251876617519
2	4492	923.239363508263	0
2	4495	923.529716354797	0.022916206729
2	4500	923.971410762455	0
2	4505	924.266435845808	0
2	4510	925.406912658289	0
2	4515	929.833975864586	0
2	4522	930.915774523815	0
2	4525	931.206127370349	0.107173109722
2	4530	934.814005167967	0
2	4535	935.593999037898	0
2	4540	937.320619396757	0
2	4545	939.137021908588	0
2	4550	940.017783182039	0
2	4555	940.507967666516	0
2	4560	945.027163626651	0
2	4567	951.227440640545	0
2	4573	951.719821658052	0.228962722109
2	4576	952.010174504586	0.137489223559
2	4581	952.398318036693	0
2	4586	954.376121717014	0
2	4591	955.474098778429	0
2	4596	957.66138681641	0
2	4605	958.416269112292	0
2	4608	958.706621958826	0.084094800273
2	4611	958.99697480536	0.321080211067
2	4616	960.646526630804	0
2	4621	962.09423162762	0
2	4626	962.691460997111	0
2	4631	965.096534797963	0
2	4636	965.427345967849	0
2	4643	965.746552973848	0
2	4646	966.036905820382	0.260030490149
2	4651	966.968222269769	0
2	4656	967.497649575573	0
2	4663	968.799224138241	0
2	4666	969.089576984775	0.270233766567
2	4671	969.3902168525	0
2	4676	971.30063990806	0
2	4681	971.616607741386	0
2	4688	972.063226229452	0
2	4691	972.353579075986	0.216052452326
2	4698	973.086184432416	0
2	4701	973.37653727895	0.054706007168
2	4706	974.256345740204	0
2	4713	976.441821562751	0
2	4718	976.732174409285	0.233099570498
2	4723	977.022527255819	0.054143541018
2	4726	977.312880102353	0.005990087991
2	4731	978.471647978072	0
2	4736	978.893879144961	0
2	4741	980.49826256541	0
2	4746	982.147213117736	0
2	4753	987.764346034712	0
2	4756	988.054698881246	0.068029821615
2	4765	988.730205890323	0
2	4770	989.020558736857	0.237961436222
2	4773	989.310911583391	0.461363438116
[...]
7	2911	589.151052584065	0
7	2916	589.496900208531	0
7	2921	592.451980908785	0
7	2928	595.220607679029	0
7	2931	595.510960525563	0
7	2936	597.844572488763	0
7	2941	599.1792425827	0
7	2946	600.761700272919	0
7	2951	603.142541892893	0
7	2958	604.336350768745	0
7	2961	604.626703615279	0
7	2968	606.287323075398	0
7	2971	606.577675921932	0
7	2976	606.988112668215	0
7	2983	607.925517198423	0
7	2988	608.215870044957	0
7	2993	608.506222891491	0
7	2996	608.796575738025	0
7	3001	609.361602677012	0
7	3008	610.414427147326	0
7	3013	610.70477999386	0
7	3016	610.995132840394	0
7	3023	612.251407832685	0
7	3026	612.541760679219	0
7	3031	614.231137279112	0
7	3038	616.853510871891	0
7	3043	617.143863718425	0
7	3046	617.434216564959	0
7	3051	618.550971215639	0
7	3056	621.36720025903	0
7	3061	621.67631934382	0
7	3066	625.660672500701	0
7	3071	626.25584839675	0
7	3078	626.845503861127	0
7	3081	627.135856707661	0
7	3088	627.512776566061	0
7	3091	627.803129412595	0
7	3096	628.367130732161	0
7	3103	630.861621259175	0
7	3106	631.151974105709	0
7	3111	633.014129781033	0
7	3116	633.927661983702	0
7	3121	634.871072976476	0
7	3126	635.473665874442	0
7	3131	637.490040057889	0
7	3136	637.932574239824	0
7	3141	638.334738573634	0
7	3148	638.650519424254	0
7	3151	638.940872270788	0
7	3156	639.398935127497	0
7	3161	641.013666500263	0
7	3169	641.992113772114	0
7	3174	642.282466618648	0
7	3177	642.572819465182	0
7	3182	643.480424171534	0
7	3189	644.445096667024	0
7	3192	644.735449513558	0
7	3199	645.199473569988	0
7	3202	645.489826416522	0
7	3207	645.824882768082	0
7	3212	646.77945383655	0
7	3217	647.421997972337	0
7	3222	648.086768697619	0
7	3227	648.773122178153	0
7	3234	649.841180360323	0
7	3237	650.131533206857	0
7	3242	650.496105642323	0
7	3247	652.216328392174	0
7	3252	652.985051275934	0
7	3259	654.450764306787	0
7	3262	654.741117153321	0
7	3267	655.865435524228	0
7	3272	657.360986982665	0
7	3279	659.880501124814	0
7	3284	660.170853971348	0
7	3287	660.461206817882	0
7	3292	663.022792908302	0
7	3297	663.332017170774	0
7	3304	664.603367459093	0
7	3307	664.893720305627	0
7	3314	665.932111865692	0
7	3317	666.222464712226	0
7	3322	667.213110625657	0
7	3327	667.768270250634	0
7	3332	668.936846813407	0
7	3337	669.345547142716	0
7	3342	672.016626248634	0
7	3347	676.580224276715	0
7	3352	677.115487500681	0
7	3359	680.210326411058	0
7	3362	680.500679257592	0
7	3369	681.818731129706	0
7	3372	682.10908397624	0
7	3377	682.691420778174	0
7	3382	684.322294981311	0
7	3387	686.091073463329	0
7	3392	687.495327021025	0
7	3399	688.036316569916	0
7	3404	688.32666941645	0
7	3409	688.617022262984	0
7	3412	688.907375109518	0
7	3419	690.223871681249	0
7	3422	690.514224527783	0
7	3427	691.79142198204	0
7	3432	692.423079045332	0
7	3437	693.296159389531	0
7	3444	695.705891215188	0
7	3447	695.996244061722	0
7	3452	697.232481138843	0
7	3459	697.65049333034	0
7	3462	697.940846176874	0
7	3467	698.388901379539	0
7	3472	699.057030759466	0
7	3479	705.575434652938	0
7	3484	705.865787499472	0
7	3487	706.156140346006	0
7	3492	707.906860883617	0
7	3497	708.935841579354	0
7	3504	709.623728082691	0
7	3507	709.914080929225	0
7	3512	711.645114669252	0
7	3518	712.243893618734	0
7	3523	712.706052236132	0
7	3528	713.518416237086	0
7	3533	716.529737185323	0
7	3540	716.914718351725	0
7	3543	717.205071198259	0
7	3548	719.253389590296	0
7	3553	720.314931154679	0
7	3558	721.67005317475	0
7	3563	722.122734336324	0
7	3568	722.531779739616	0
7	3573	724.524590940133	0
7	3578	725.380230296281	0
7	3587	726.205650630872	0
7	3590	726.496003477406	0
7	3593	726.78635632394	0
7	3598	727.975238790345	0
7	3603	730.769288261713	0
7	3608	731.083954274752	0
7	3613	732.109797626867	0
7	3624	732.664449885538	0
7	3627	732.954802732072	0
7	3632	733.245155578606	0
7	3635	733.53550842514	0
7	3638	733.825861271674	0
7	3643	735.304065355484	0
7	3650	736.650889986229	0
7	3653	736.941242832763	0
7	3658	739.064778987009	0
7	3663	739.580755039853	0
7	3670	743.601421972314	0
7	3675	743.891774818848	0
7	3678	744.182127665382	0
7	3683	747.567216869497	0
7	3688	748.186918744604	0
7	3693	749.064508017057	0
7	3702	751.23345695285	0
7	3705	751.523809799384	0
7	3708	751.814162645918	0
7	3713	752.181935660975	0
7	3720	752.838469996324	0
7	3725	753.128822842858	0
7	3728	753.419175689392	0
7	3733	755.001084795514	0
7	3740	755.792044363915	0
7	3743	756.082397210449	0
7	3748	756.610650460905	0
7	3753	757.029650083931	0
7	3758	758.571264261031	0
7	3765	760.019755310011	0
7	3768	760.310108156545	0
7	3773	761.304278889133	0
7	3780	762.347052396644	0
7	3783	762.637405243178	0
7	3788	763.151099926835	0
7	3793	765.228843558144	0
7	3798	765.556059115529	0
7	3803	767.498119744705	0
7	3808	769.819608751938	0
7	3813	771.769280113754	0
7	3818	773.847016392685	0
7	3823	777.368970560306	0
7	3828	778.178238774327	0
7	3833	779.473986221158	0
7	3840	781.298053942023	0
7	3843	781.588406788557	0
7	3848	783.146661979001	0
7	3853	784.107384833787	0
7	3860	785.207849235514	0
7	3865	785.498202082048	0
7	3869	785.990583099555	0
7	3874	786.540894222448	0
7	3879	788.922297299997	0
7	3884	789.394900466255	0
7	3889	790.22283493659	0
7	3894	790.808311863257	0
7	3901	791.270048285329	0
7	3904	791.560401131863	0
7	3911	792.019237014404	0
7	3914	792.309589860938	0
7	3919	792.774747459228	0
7	3926	793.594988851059	0
7	3929	793.885341697593	0
7	3936	795.117688145831	0
7	3939	795.408040992365	0
7	3944	796.177389093437	0
7	3949	796.941121495629	0
7	3954	799.256444112578	0
7	3959	801.780624847911	0
7	3966	802.076181039214	0
7	3969	802.366533885748	0
7	3974	803.781860473623	0
7	3979	804.226649621717	0
7	3984	805.387029935958	0
7	3989	806.834371555648	0
7	3996	807.776337289525	0
7	3999	808.066690136059	0
7	4004	811.900124257579	0
7	4009	813.035006577468	0
7	4014	813.851487932515	0
7	4019	816.110499450814	0
7	4024	817.423967868589	0
7	4031	818.758479399607	0
7	4034	819.048832246141	0
7	4039	821.632423977511	0
7	4044	822.291896153501	0
7	4049	824.859047588923	0
7	4054	826.074611798168	0
7	4063	826.5848969483	0
7	4066	826.875249794834	0
7	4071	827.165602641368	0
7	4074	827.455955487902	0
7	4081	828.429297874694	0
7	4086	828.719650721228	0
7	4089	829.010003567762	0
7	4094	829.755391185799	0
7	4099	830.445369284754	0
7	4104	831.338630134674	0
7	4109	832.394021920374	0
7	4114	834.855891339134	0
7	4119	837.388106624116	0
7	4126	838.809714050727	0
7	4129	839.100066897261	0
7	4134	839.967298778346	0
7	4139	843.109274160176	0
7	4144	846.041335254423	0
7	4149	846.601429277157	0
7	4154	847.811031561166	0
7	4159	851.405801384137	0
7	4164	851.92591642757	0
7	4171	852.376299604481	0
7	4174	852.666652451015	0
7	4179	856.768328494785	0
7	4184	858.489035694399	0
7	4189	860.043331960771	0
7	4194	860.475809063541	0
7	4199	862.128675900681	0
7	4204	862.780062149816	0
7	4209	863.228435444442	0
7	4214	864.147041564103	0
7	4220	865.290307360171	0
7	4225	865.950753721577	0
7	4230	870.054321783217	0
7	4235	874.070209727426	0
7	4242	875.183403811743	0
7	4245	875.473756658277	0
7	4250	876.553638670426	0
7	4255	879.092733988976	0
7	4260	879.461596747688	0
7	4267	882.159731119875	0
7	4270	882.450083966409	0
7	4275	883.426116317217	0
7	4280	884.210670659411	0
7	4285	885.721664105469	0
7	4290	887.70087319083	0
7	4297	888.961933745913	0
7	4300	889.252286592447	0
7	4305	889.573145187657	0
7	4310	890.355072587928	0
7	4315	892.381895900119	0
7	4322	892.743782935689	0
7	4327	893.034135782223	0
7	4332	893.324488628757	0
7	4335	893.614841475291	0
7	4340	894.206678783507	0
7	4345	896.058410715929	0
7	4350	897.250165996673	0
7	4359	898.246747469924	0
7	4362	898.537100316458	0
7	4367	898.827453162992	0
7	4370	899.117806009526	0
7	4375	902.271394276722	0
7	4380	904.070354373113	0
7	4385	904.737879737272	0
7	4390	905.291527497592	0
7	4395	906.232060797525	0
7	4400	907.618195841602	0
7	4407	908.241504991512	0
7	4416	908.531857838046	0
7	4419	908.82221068458	0
7	4422	909.112563531114	0
7	4425	909.402916377648	0
7	4430	915.183489912698	0
7	4437	915.979887045125	0
7	4440	916.270239891659	0
7	4445	916.582954701347	0
7	4450	917.341316248535	0
7	4455	917.712828044807	0
7	4460	918.928425354194	0
7	4465	919.403356380808	0
7	4470	920.066122909292	0
7	4477	920.690269594401	0
7	4482	920.980622440935	0
7	4485	921.270975287469	0
7	4492	923.239363508263	0
7	4495	923.529716354797	0
7	4500	923.971410762455	0
7	4505	924.266435845808	0
7	4510	925.406912658289	0
7	4515	929.833975864586	0
7	4522	930.915774523815	0
7	4525	931.206127370349	0
7	4530	934.814005167967	0
7	4535	935.593999037898	0
7	4540	937.320619396757	0
7	4545	939.137021908588	0
7	4550	940.017783182039	0
7	4555	940.507967666516	0
7	4560	945.027163626651	0
7	4567	951.227440640545	0
7	4573	951.719821658052	0
7	4576	952.010174504586	0
7	4581	952.398318036693	0
7	4586	954.376121717014	0
7	4591	955.474098778429	0
7	4596	957.66138681641	0
7	4605	958.416269112292	0
7	4608	958.706621958826	0
7	4611	958.99697480536	0
7	4616	960.646526630804	0
7	4621	962.09423162762	0
7	4626	962.691460997111	0
7	4631	965.096534797963	0
7	4636	965.427345967849	0
7	4643	965.746552973848	0
7	4646	966.036905820382	0
7	4651	966.968222269769	0
7	4656	967.497649575573	0
7	4663	968.799224138241	0
7	4666	969.089576984775	0
7	4671	969.3902168525	0
7	4676	971.30063990806	0
7	4681	971.616607741386	0
7	4688	972.063226229452	0
7	4691	972.353579075986	0
7	4698	973.086184432416	0
7	4701	973.37653727895	0
7	4706	974.256345740204	0
7	4713	976.441821562751	0
7	4718	976.732174409285	0
7	4723	977.022527255819	0
7	4726	977.312880102353	0
7	4731	978.471647978072	0
7	4736	978.893879144961	0
7	4741	980.49826256541	0
7	4746	982.147213117736	0
7	4753	987.764346034712	0
7	4756	988.054698881246	0
7	4765	988.730205890323	0
7	4770	989.020558736857	0
7	4773	989.310911583391	0
7	4776	989.601264429925	0
7	4781	994.573810765695	0
7	4786	995.314190515193	0
7	4793	995.703895610937	0
7	4796	995.994248457471	0
7	4803	996.522924622425	0
7	4806	996.813277468959	0
7	4813	997.372620037629	0
7	4816	997.662972884163	0
7	4821	998.12504005861	0
7	4826	998.663079041946	0
7	4831	998.984308013444	0
7	4836	999.667584186155	0
8	78	14.930219302327	0.232402811139
8	83	15.220572148861	0.485482047186
8	86	15.510924995395	0.372247672959
8	96	16.23787205397	0.00894347219
8	101	16.528224900504	0.268888530896
8	111	17.15300505233	0.072490761625
8	121	18.365922440809	0.170207600198
8	131	18.950049486495	0.067039505125
8	146	21.553648233415	0.033124129116
8	166	27.336110931435	0.236948696555
8	183	29.941717405247	0.133129864202
8	186	30.232070251781	0.348663873385
8	221	36.164532209889	0.045437199591
8	263	44.036492333487	0.133207633831
8	266	44.326845180021	0.33172243161
8	276	45.236110203462	0.048464025755
8	326	61.707504623674	0.184316944589
8	362	70.31899697708	0.004956909565
8	372	71.304253065391	0.236013443365
8	412	77.213461039458	0.127695297156
8	442	84.127030672038	0.089481465768
8	472	89.369652878103	0.162403379593
8	482	90.857781800747	0.277613620934
8	537	98.340588677	0.256647373518
8	557	100.968122077502	0.132423629021
8	567	101.966516559404	0.28919501729
8	577	103.583394542769	0.018949840734
8	587	107.007894581468	0.281283344573
8	602	108.37265626361	0.031998683798
8	639	118.28259008378	0.267835039022
8	644	118.572942930314	0.380432173477
8	649	118.863295776848	0.565644295763
8	652	119.153648623382	0.446240735406
8	677	127.028541803851	0.257524304095
8	689	127.870210697989	0.164420123006
8	692	128.160563544523	0.441675315783
8	697	128.450916391057	0.085964069351
8	773	149.233167452847	0.033610642777
8	808	158.440885827791	0.200804970232
8	838	164.487071326212	0.215454867202
8	853	167.590795394612	0.194302309496
8	860	167.881148241146	0.249353342977
8	865	168.17150108768	0.520335667394
8	868	168.461853934214	0.313953331597
8	898	172.884378953065	0.251559450901
8	910	176.224143805963	0.219432765595
8	915	176.514496652497	0.418385739644
8	918	176.804849499031	0.49175986108
8	973	190.358772236142	0.003827987497
8	978	190.649125082676	0.013513984163
8	1008	197.551549399543	0.2454015391
8	1013	197.841902246077	0.239332660305
8	1040	202.948643095942	0.233922448813
8	1043	203.238995942476	0.386662421036
8	1048	203.52934878901	0.092935280449
8	1074	210.887888792917	0.183197786922
8	1084	212.129140833414	0.135617595348
8	1094	213.37111225746	0.138522142389
8	1099	213.661465103994	0.051773718524
8	1104	213.951817950528	0.244126801169
8	1116	214.942076485634	0.072076805046
8	1121	215.232429332168	0.362169004454
8	1128	215.522782178702	0.298250807281
8	1133	215.813135025236	0.546711201094
8	1140	216.10348787177	0.67774266093
8	1143	216.393840718304	0.774077471566
8	1146	216.684193564838	0.731879298441
8	1149	216.974546411372	0.955667638092
8	1187	225.042072612359	0.036247424171
8	1227	231.742720244997	0.199787198607
8	1249	235.474076482447	0.120248858863
8	1252	235.764429328981	0.374487561381
8	1272	241.826078793307	0.206836457703
8	1287	246.644164741273	0.066804022654
8	1332	264.405239748476	0.192390935274
8	1352	267.685064373505	0.288059318776
8	1367	273.635793580859	0.002285070384
8	1404	283.040425380951	0.123576009089
8	1409	283.532806398458	0.560909910154
8	1430	286.958445215679	0.207363515628
8	1433	287.248798062213	0.458176580549
8	1510	304.611458883973	0.1249710421
8	1513	304.901811730507	0.386291140479
8	1523	307.004663153375	0.104404203579
8	1538	310.208644243807	0.168044930293
8	1573	322.567756490227	0.245650082928
8	1593	324.800453461795	0.203338636288
8	1618	329.139728645798	0.007534124941
8	1625	329.430081492332	0.087978745253
8	1628	329.720434338866	0.3292469765
8	1645	335.337085539949	0.26942324128
8	1650	335.627438386483	0.450892439585
8	1655	335.917791233017	0.410749730605
8	1658	336.208144079551	0.517577108845
8	1663	336.498496926085	0.074936104495
8	1698	342.627517747291	0.156928054328
8	1753	350.069547098537	0.160513260259
8	1774	354.759838313593	0.176151887628
8	1799	361.081897844065	0.016765344455
8	1819	363.131185909236	0.287439132879
8	1829	364.775202433261	0.16051835357
8	1864	369.552880779344	0.066830259857
8	1889	374.655395896994	0.028587075827
8	1904	382.128650405612	0.188560209308
8	1929	385.329520331324	0.283314406818
8	1984	399.20699549774	0.021677619866
8	1991	399.497348344274	0.236170587738
8	1994	399.787701190808	0.434176344287
8	2014	403.538326510658	0.259093159731
8	2066	418.490185713405	0.228990608263
8	2069	418.780538559939	0.319567937449
8	2074	419.070891406473	0.100252368205
8	2140	435.40187958648	0.112832693588
8	2145	435.692232433014	0.073031417063
8	2155	437.478722802876	0.137137564113
8	2165	439.178475070972	0.125399334891
8	2200	449.72450631914	0.154702787221
8	2215	451.964982500308	0.144194305567
8	2225	454.429114069198	0.052085919472
8	2245	458.181965776415	0.092623979786
8	2257	458.839215318815	0.119801890033
8	2260	459.129568165349	0.368350740596
8	2270	460.044644123521	0.083086101828
8	2292	469.868958029898	0.279624132448
8	2295	470.159310876432	0.426884766014
8	2302	470.449663722966	0.12183396882
8	2307	470.7400165695	0.364693721499
8	2310	471.030369416034	0.43447452524
8	2360	481.850429630079	0.025943612515
8	2400	487.692044447212	0.132610241444
8	2417	490.676264432405	0.135513196315
8	2420	490.966617278939	0.323316194038
8	2440	493.497299109353	0.049999869947
8	2450	496.168747507212	0.141959642853
8	2462	498.10475219457	0.160222181749
8	2481	501.017890990548	0.192238456981
8	2496	502.553399967126	0.04177996204
8	2511	503.861312610046	0.00385677973
8	2521	505.043333074712	0.076582699805
8	2551	514.192047316948	0.196592138231
8	2566	515.68906465303	0.285828998704
8	2571	515.979417499564	0.264256115734
8	2651	530.764767599679	0.109964462956
8	2696	540.617905809789	0.03938529161
8	2716	548.01902953975	0.133889765394
8	2736	551.050420456296	0.21544407602
8	2763	559.577648868094	0.26025798332
8	2766	559.868001714628	0.334115888738
8	2776	560.945697431081	0.179892113859
8	2801	568.131280085182	0.063233517351
8	2822	572.11133546063	0.153373477817
8	2852	577.534594107051	0.036139182583
8	2887	585.41143502523	0.24801787679
8	2892	585.701787871764	0.17315407156
8	2927	595.220607679029	0.007431660249
8	2957	604.336350768745	0.041756271286
8	2967	606.287323075398	0.172108530212
8	2982	607.925517198423	0.089402950925
8	2987	608.215870044957	0.167711346711
8	2992	608.506222891491	0.237511472896
8	3007	610.414427147326	0.151536744045
8	3012	610.70477999386	0.22790477902
8	3022	612.251407832685	0.016987467133
8	3037	616.853510871891	0.011183088481
8	3042	617.143863718425	0.148161310027
8	3077	626.845503861127	0.247245661749
8	3087	627.512776566061	0.056624205376
8	3102	630.861621259175	0.011375614025
8	3147	638.650519424254	0.263696444634
8	3168	641.992113772114	0.00035578528
8	3173	642.282466618648	0.280328671266
8	3188	644.445096667024	0.075083622991
8	3198	645.199473569988	0.262346136766
8	3233	649.841180360323	0.224697309999
8	3258	654.450764306787	0.287431335248
8	3278	659.880501124814	0.194164069882
8	3283	660.170853971348	0.115902341995
8	3303	664.603367459093	0.239461293454
8	3313	665.932111865692	0.146956177396
8	3358	680.210326411058	0.109311544485
8	3368	681.818731129706	0.035958882214
8	3398	688.036316569916	0.225441946338
8	3403	688.32666941645	0.129157499638
8	3408	688.617022262984	0.0317685739
8	3418	690.223871681249	0.214820159386
8	3443	695.705891215188	0.047786420523
8	3458	697.65049333034	0.25624679731
8	3478	705.575434652938	0.254796446024
8	3483	705.865787499472	0.193649696581
8	3503	709.623728082691	0.124394127011
8	3539	716.914718351725	0.096534777075
8	3586	726.205650630872	0.15872311282
8	3589	726.496003477406	0.386795731258
8	3623	732.664449885538	0.157101983998
8	3626	732.954802732072	0.447199324469
8	3631	733.245155578606	0.586136689113
8	3634	733.53550842514	0.578635153247
8	3649	736.650889986229	0.072482339882
8	3669	743.601421972314	0.274532421879
8	3674	743.891774818848	0.265133143077
8	3701	751.23345695285	0.237232971564
8	3704	751.523809799384	0.522596118333
8	3719	752.838469996324	0.129673212942
8	3724	753.128822842858	0.126060248485
8	3739	755.792044363915	0.214809616723
8	3764	760.019755310011	0.126079790448
8	3779	762.347052396644	0.020716121815
8	3839	781.298053942023	0.125308380976
8	3859	785.207849235514	0.088269412104
8	3866	785.700230253021	0.431597455247
8	3900	791.270048285329	0.25568236133
8	3910	792.019237014404	0.236801822433
8	3925	793.594988851059	0.274206815829
8	3935	795.117688145831	0.072519403127
8	3965	802.076181039214	0.102793859822
8	3995	807.776337289525	0.187456179979
8	4030	818.758479399607	0.214188871339
8	4062	826.5848969483	0.257399449414
8	4065	826.875249794834	0.523980113971
8	4070	827.165602641368	0.20924733647
8	4080	828.429297874694	0.158283508051
8	4085	828.719650721228	0.225822121804
8	4125	838.809714050727	0.238212945119
8	4170	852.376299604481	0.251532707497
8	4241	875.183403811743	0.234869325901
8	4266	882.159731119875	0.021169579616
8	4296	888.961933745913	0.014897343501
8	4321	892.743782935689	0.197432043407
8	4326	893.034135782223	0.117103793112
8	4331	893.324488628757	0.107873893727
8	4358	898.246747469924	0.076747021781
8	4361	898.537100316458	0.294009335031
8	4366	898.827453162992	0.208695580727
8	4406	908.241504991512	0.156470855146
8	4415	908.531857838046	0.270724762745
8	4418	908.82221068458	0.486448756771
8	4421	909.112563531114	0.642476313
8	4436	915.979887045125	0.032082816195
8	4476	920.690269594401	0.00039465281
8	4481	920.980622440935	0.251876617519
8	4491	923.239363508263	0.022916206729
8	4521	930.915774523815	0.107173109722
8	4568	951.429468811518	0.228962722109
8	4572	951.719821658052	0.137489223559
8	4604	958.416269112292	0.084094800273
8	4607	958.706621958826	0.321080211067
8	4642	965.746552973848	0.260030490149
8	4662	968.799224138241	0.270233766567
8	4687	972.063226229452	0.216052452326
8	4697	973.086184432416	0.054706007168
8	4712	976.441821562751	0.233099570498
8	4717	976.732174409285	0.054143541018
8	4722	977.022527255819	0.005990087991
8	4752	987.764346034712	0.068029821615
8	4764	988.730205890323	0.237961436222
8	4769	989.020558736857	0.461363438116
8	4772	989.310911583391	0.432007001882
8	4792	995.703895610937	0.251163075461
8	4802	996.522924622425	0.163277387635
8	4812	997.372620037629	0.237688413737

