version 2
run General-437-20240201-11:04:31-40057
attr configname General
attr datetime 20240201-11:04:31
attr experiment General
attr inifile main.ini
attr iterationvars "$0=1.0, $1=3.5, $2=30"
attr iterationvarsf 1.0,3.5,30-
attr measurement "$0=1.0, $1=3.5, $2=30"
attr network Rete
attr processid 40057
attr repetition 17
attr replication #17
attr resultdir results
attr runnumber 437
attr seedset 437
param Rete.lambda 1.0
param Rete.a 0.3s
param Rete.b 3.5s
param Rete.c 0.1s
param Rete.d 0.3s
param Rete.mu 3.0
param Rete.source2.interArrivalTime exponential(1s/lambda)
param Rete.source2.jobServiceTime exponential(1s/mu)
param Rete.source2.deadline uniform(a,b)
param Rete.server2.j 30
param Rete.server2.V uniform(c,d)

vector 0 Rete.passiveQueue queueLength:vector ETV
attr interpolationmode sample-hold
attr title "queue length, vector"
vector 1 Rete.sink lifeTime:vector ETV
attr interpolationmode none
attr title "lifetime of arrived jobs, vector"
attr unit s
vector 2 Rete.sink totalQueueingTime:vector ETV
attr interpolationmode none
attr title "the total time spent in queues by arrived jobs, vector"
attr unit s
vector 3 Rete.sink queuesVisited:vector ETV
attr interpolationmode none
attr title "the total number of queues visited by arrived jobs, vector"
vector 4 Rete.sink totalServiceTime:vector ETV
attr interpolationmode none
attr title "the total time spent  by arrived jobs, vector"
attr unit s
vector 5 Rete.sink totalDelayTime:vector ETV
attr interpolationmode none
attr title "the total time spent in delay nodes by arrived jobs, vector"
attr unit s
vector 6 Rete.sink delaysVisited:vector ETV
attr interpolationmode none
attr title "the total number of delays visited by arrived jobs, vector"
vector 7 Rete.sink generation:vector ETV
attr interpolationmode none
attr title "the generation of the arrived jobs, vector"
vector 8 Rete.passiveQueue queueingTime:vector ETV
attr interpolationmode none
attr title "queueing time at dequeue, vector"
attr unit s
0	0	0	0
0	40	10.463075088114	1
0	42	10.536485491703	2
0	43	10.564952574611	1
0	46	10.736414748793	0
0	95	18.966386760253	1
0	96	19.135514526082	0
0	105	19.588649415402	1
0	106	19.71725055797	0
0	125	23.533276415986	1
0	127	23.552650416981	2
0	128	23.596513999835	1
0	132	23.742316400995	2
0	133	23.767976174017	1
0	136	23.939438348199	0
0	176	32.177844229299	1
0	177	32.298350110392	0
0	246	41.865379011533	1
0	247	41.920571137167	0
0	271	44.847110708041	1
0	272	44.949422544055	0
0	286	46.2921365293	1
0	288	46.34043763081	2
0	289	46.452692287524	1
0	292	46.624154461706	0
0	296	46.709878895535	1
0	297	46.795616635888	0
0	303	47.005512644615	1
0	304	47.259197254503	0
0	307	47.305862564274	1
0	308	47.430659428685	0
0	312	47.43734177694	1
0	313	47.602121602867	0
0	322	48.233597174088	1
0	323	48.31246862951	0
0	377	63.133020022858	1
0	378	63.167446552788	0
0	417	69.023115799811	1
0	418	69.105064614347	0
0	454	77.791795005524	1
0	455	77.885865316745	0
0	458	78.03251554592	1
0	459	78.057327490927	0
0	488	82.48130646146	1
0	489	82.58848018929	0
0	493	82.643377663811	1
0	494	82.759942363472	0
0	538	91.324851903979	1
0	539	91.446383914133	0
0	593	109.485291679008	1
0	595	109.59697111689	2
0	596	109.614342889076	1
0	599	109.785805063258	0
0	603	109.799042314365	1
0	606	110.249385681873	0
0	674	119.293749214932	1
0	675	119.379393889364	0
0	739	130.131140541943	1
0	741	130.144330196071	2
0	742	130.170402439731	1
0	746	130.290084401658	2
0	747	130.341864613913	1
0	750	130.513326788095	0
0	926	173.63401667803	1
0	927	173.655080559597	0
0	976	186.404471435639	1
0	977	186.478886728726	0
0	981	186.585053756415	1
0	982	186.650348902908	0
0	1001	189.249544040349	1
0	1002	189.385491287858	0
0	1011	190.125236392104	1
0	1012	190.221308482693	0
0	1046	195.993095602636	1
0	1047	196.041800289935	0
0	1051	196.08988126804	1
0	1052	196.213262464117	0
0	1092	212.678471090256	1
0	1093	212.711736270808	0
0	1097	212.829988045168	1
0	1098	212.88319844499	0
0	1102	212.920373623476	1
0	1103	213.054660619172	0
0	1107	213.198274607691	1
0	1108	213.226122793354	0
0	1112	213.396156678029	1
0	1113	213.397584967536	0
0	1202	229.060173226356	1
0	1203	229.094516107882	0
0	1253	239.746890681925	1
0	1254	239.875899960378	0
0	1278	245.374002530968	1
0	1279	245.432667806958	0
0	1298	250.895070765607	1
0	1299	250.947894805444	0
0	1308	251.3004983944	1
0	1309	251.300602683446	0
0	1318	252.336040585041	1
0	1319	252.481021233593	0
0	1348	262.342940053052	1
0	1349	262.460164055748	0
0	1358	263.111641234357	1
0	1362	263.515137235872	2
0	1363	263.544251886718	1
0	1365	263.7157140609	0
0	1369	263.864722129194	1
0	1370	263.887176235082	0
0	1379	265.269151785838	1
0	1380	265.29083269907	0
0	1404	266.882429956053	1
0	1405	266.922913780402	0
0	1429	272.185812511508	1
0	1430	272.322770114808	0
0	1454	276.244622243246	1
0	1455	276.268368112897	0
0	1479	282.147449013611	1
0	1480	282.203377675683	0
0	1520	293.606358023601	1
0	1521	293.689343415242	0
0	1545	296.512703849902	1
0	1546	296.642104055626	0
0	1560	298.677090631989	1
0	1561	298.817208989211	0
0	1605	307.901091672269	1
0	1606	308.042361760099	0
0	1625	312.499815776398	1
0	1626	312.573308141597	0
0	1655	315.498402376018	1
0	1656	315.577088825168	0
0	1662	315.764514548454	1
0	1663	316.040669443783	0
0	1676	318.209631739574	1
0	1677	318.245417534831	0
0	1741	333.38219910499	1
0	1742	333.387334317998	0
0	1776	341.910317646698	1
0	1777	341.917635245665	0
0	1801	345.486855898291	1
0	1802	345.545310845852	0
0	1813	345.920384167982	1
0	1815	346.063063692113	2
0	1816	346.19672165311	1
0	1818	346.368183827292	0
0	1857	361.631468567547	1
0	1858	361.710425782069	0
0	1862	361.758271872557	1
0	1864	361.761507610098	2
0	1865	361.881887956251	1
0	1868	362.053350130433	0
0	1962	383.200026579742	1
0	1965	383.615147790964	0
0	2003	389.854689817444	1
0	2004	389.860056450334	0
0	2028	395.666485710433	1
0	2029	395.769011018156	0
0	2073	402.149127635786	1
0	2074	402.233456193568	0
0	2108	411.989723060045	1
0	2109	412.120668196214	0
0	2113	412.147414871498	1
0	2117	412.498471326143	2
0	2118	412.584248814829	1
0	2120	412.755710989011	0
0	2129	413.569342046559	1
0	2130	413.638773737802	0
0	2244	443.147094967077	1
0	2245	443.199789721884	0
0	2355	466.793705647971	1
0	2356	466.861634175215	0
0	2395	471.628226811894	1
0	2397	471.649150643521	2
0	2398	471.73971465809	1
0	2401	471.911176832272	0
0	2431	478.563425186798	1
0	2432	478.606049196184	0
0	2516	498.559535855323	1
0	2517	498.567738585895	0
0	2592	513.870849223562	1
0	2593	513.972811071126	0
0	2597	514.035320892306	1
0	2598	514.144273245308	0
0	2602	514.299067522576	1
0	2603	514.31573541949	0
0	2622	516.170473865871	1
0	2623	516.277939292096	0
0	2647	522.636704421111	1
0	2648	522.66733794938	0
0	2652	522.675016339768	1
0	2654	522.83502710618	2
0	2655	522.838800123562	1
0	2658	523.010262297744	0
0	2712	538.347099551294	1
0	2713	538.407264648319	0
0	2728	539.195113040029	1
0	2729	539.361990651157	0
0	2763	546.165283662384	1
0	2764	546.311515195	0
0	2778	548.072816606367	1
0	2779	548.19356643786	0
0	2783	548.284321330916	1
0	2784	548.365028612042	0
0	2788	548.426486624768	1
0	2789	548.536490786224	0
0	2798	549.493312570986	1
0	2799	549.614618540498	0
0	2833	557.091108722112	1
0	2834	557.259862322112	0
0	2838	557.386349504971	1
0	2840	557.429955005433	2
0	2841	557.431324496294	1
0	2844	557.602786670476	0
0	2853	560.091474401672	1
0	2854	560.240237172144	0
0	2863	564.473065183854	1
0	2864	564.639467299024	0
0	2870	565.075578196848	1
0	2871	565.103047917639	0
0	2999	588.173918747214	1
0	3000	588.262366149481	0
0	3009	589.561708236411	1
0	3010	589.633234630216	0
0	3025	591.154862565929	1
0	3026	591.205739963013	0
0	3045	594.009288442041	1
0	3046	594.104958581082	0
0	3070	599.611711719871	1
0	3072	599.642946540216	2
0	3073	599.683771584827	1
0	3076	599.855233759009	0
0	3085	600.532332730292	1
0	3086	600.637991019153	0
0	3150	606.134443696206	1
0	3151	606.28064536418	0
0	3251	627.531386279158	1
0	3253	627.594513900877	2
0	3254	627.645620373405	1
0	3257	627.817082547587	0
0	3311	639.205664043029	1
0	3312	639.244834378123	0
0	3323	641.43879302459	1
0	3324	641.525750769871	0
0	3347	649.441950069126	1
0	3348	649.447612371653	0
0	3397	659.451384002663	1
0	3398	659.590332298195	0
0	3407	661.753281333044	1
0	3408	661.796724523237	0
0	3447	673.204690734565	1
0	3448	673.308631513068	0
0	3483	679.95107939123	1
0	3484	680.073631852872	0
0	3498	681.469691376239	1
0	3500	681.534216888996	2
0	3501	681.567736211396	1
0	3504	681.739198385578	0
0	3543	688.299188214966	1
0	3544	688.428964342437	0
0	3548	688.479103097134	1
0	3549	688.600426516619	0
0	3553	688.731892151351	1
0	3554	688.771888690801	0
0	3618	707.111648251853	1
0	3620	707.154402826801	2
0	3621	707.261352559624	1
0	3625	707.329564442751	2
0	3628	707.724933178239	1
0	3630	707.896395352421	0
0	3659	713.169369512667	1
0	3660	713.330825169929	0
0	3664	713.353184125772	1
0	3665	713.502287344111	0
0	3709	723.244421732205	1
0	3710	723.367968982921	0
0	3729	725.9154833326	1
0	3730	725.942476680343	0
0	3734	726.075498687138	1
0	3735	726.113938854525	0
0	3769	730.614508125647	1
0	3770	730.647871574017	0
0	3810	739.193912528687	1
0	3811	739.323615017062	0
0	3815	739.402798653866	1
0	3816	739.495077191244	0
0	3840	743.426295844336	1
0	3841	743.533660784563	0
0	4021	798.952600906826	1
0	4022	799.05084529915	0
0	4087	811.861664381658	1
0	4088	812.000943822304	0
0	4107	814.398845486207	1
0	4109	814.475311224824	2
0	4110	814.559310308911	1
0	4113	814.730772483093	0
0	4142	821.37785837155	1
0	4143	821.417684206326	0
0	4152	822.250672632137	1
0	4153	822.402755618913	0
0	4182	826.270818342119	1
0	4183	826.384679233387	0
0	4192	827.167293072946	1
0	4194	827.220555204119	2
0	4195	827.256513003539	1
0	4198	827.427975177721	0
0	4202	827.525362439648	1
0	4203	827.599437351903	0
0	4217	830.878152574356	1
0	4218	831.010412529641	0
0	4258	838.577656046284	1
0	4259	838.658826924583	0
0	4273	841.479781719234	1
0	4274	841.623138740411	0
0	4283	843.198346481763	1
0	4284	843.243482519488	0
0	4298	845.496881278791	1
0	4300	845.512708078312	2
0	4301	845.644839643436	1
0	4304	845.816301817618	0
0	4318	848.562990354649	1
0	4319	848.567797021967	0
0	4358	858.248378378434	1
0	4359	858.269579770958	0
0	4459	884.724162418203	1
0	4460	884.72571938373	0
0	4550	907.598822674736	1
0	4551	907.734497996146	0
0	4590	915.603948708628	1
0	4591	915.751091598076	0
0	4605	916.843553307512	1
0	4606	916.927748424567	0
0	4691	938.34816822264	1
0	4692	938.352772485414	0
0	4706	941.340675730537	1
0	4707	941.490423281113	0
0	4746	946.057204038595	1
0	4747	946.217606074617	0
0	4781	949.367966025587	1
0	4782	949.473554111011	0
0	4816	956.116704437143	1
0	4817	956.215651619973	0
0	4821	956.239162485445	1
0	4822	956.387113794155	0
0	4867	966.982810149406	1
0	4868	967.098883477053	0
0	4877	969.698299780144	1
0	4878	969.843140107855	0
0	4922	981.566689712962	1
0	4924	981.627608741573	2
0	4925	981.715595041259	1
0	4928	981.887057215441	0
0	4942	984.349912639525	1
0	4943	984.469583136786	0
1	5	0.944106774557	0.171462174182
1	10	2.684584608856	0.171462174182
1	15	3.861383534989	0.171462174182
1	20	5.01334414379	0.171462174182
1	25	7.343566931916	0.171462174182
1	30	7.685390868202	0.171462174182
1	35	9.281295512628	0.171462174182
1	44	10.564952574611	0.171462174182
1	47	10.736414748793	0.273339660679
1	50	10.907876922975	0.371391431272
1	55	11.126218404551	0.171462174182
1	60	13.150994128834	0.171462174182
1	65	13.454207485301	0.171462174182
1	70	14.419764406487	0.171462174182
1	75	15.288480927983	0.171462174182
1	80	15.734726830419	0.171462174182
1	85	17.486057806871	0.171462174182
1	90	18.518646796315	0.171462174182
1	97	19.135514526082	0.171462174182
1	100	19.306976700264	0.340589940011
1	107	19.71725055797	0.171462174182
1	110	19.888712732152	0.30006331675
1	115	21.420253437089	0.171462174182
1	120	23.395901675743	0.171462174182
1	129	23.596513999835	0.171462174182
1	134	23.767976174017	0.234699758031
1	137	23.939438348199	0.386787931218
1	140	24.110900522381	0.368584121386
1	145	25.933506860265	0.171462174182
1	150	26.678206347308	0.171462174182
1	156	28.412703151458	0.171462174182
1	161	28.820562280738	0.171462174182
1	166	30.071877886837	0.171462174182
1	171	31.492397413556	0.171462174182
1	178	32.298350110392	0.171462174182
1	181	32.469812284574	0.291968055275
1	186	34.000793120734	0.171462174182
1	191	35.064039937555	0.171462174182
1	196	35.348737178769	0.171462174182
1	201	35.891455760824	0.171462174182
1	206	36.668996057507	0.171462174182
1	211	36.862934462538	0.171462174182
1	216	37.204723995224	0.171462174182
1	221	37.662778957014	0.171462174182
1	226	39.081503442172	0.171462174182
1	231	39.389999922858	0.171462174182
1	236	39.593278408422	0.171462174182
1	241	41.124804646493	0.171462174182
1	248	41.920571137167	0.171462174182
1	251	42.092033311349	0.226654299816
1	256	42.310578289638	0.171462174182
1	261	43.153570228133	0.171462174182
1	266	43.919879146077	0.171462174182
1	273	44.949422544055	0.171462174182
1	276	45.120884718237	0.273774010196
1	281	45.862533011392	0.171462174182
1	290	46.452692287524	0.171462174182
1	293	46.624154461706	0.332017932406
1	298	46.795616635888	0.455179005078
1	301	46.96707881007	0.257199914535
1	309	47.430659428685	0.42514678407
1	314	47.602121602867	0.296259038593
1	317	47.773583777049	0.336242000109
1	324	48.31246862951	0.171462174182
1	327	48.483930803692	0.250333629604
1	332	50.148946318958	0.171462174182
1	337	51.294391984501	0.171462174182
1	342	51.466246192717	0.171462174182
1	347	51.681246546472	0.171462174182
1	352	53.007624712583	0.171462174182
1	357	58.287522518361	0.171462174182
1	362	58.698513978964	0.171462174182
1	367	60.047614872651	0.171462174182
1	372	61.511517745688	0.171462174182
1	379	63.167446552788	0.171462174182
1	382	63.33890872697	0.205888704112
1	387	65.165199310168	0.171462174182
1	392	66.83938811156	0.171462174182
1	397	67.235431678059	0.171462174182
1	402	67.412608120807	0.171462174182
1	407	68.07449571125	0.171462174182
1	412	68.32398661325	0.171462174182
1	419	69.105064614347	0.171462174182
1	422	69.276526788529	0.253410988718
1	427	71.806979742298	0.171462174182
1	432	72.383247036238	0.171462174182
1	437	73.303594471074	0.171462174182
1	442	73.62307658583	0.171462174182
1	447	74.1599483283	0.171462174182
1	452	77.593746872312	0.171462174182
1	460	78.057327490927	0.265532485403
1	463	78.228789665109	0.196274119189
1	468	79.175043999718	0.171462174182
1	473	79.674845461775	0.171462174182
1	478	80.748093683584	0.171462174182
1	483	81.995896862971	0.171462174182
1	490	82.58848018929	0.171462174182
1	495	82.759942363472	0.278635902012
1	498	82.931404537654	0.288026873843
1	503	84.117372799667	0.171462174182
1	508	84.69297625398	0.171462174182
1	513	85.160164962644	0.171462174182
1	518	85.914483158938	0.171462174182
1	523	86.944697877062	0.171462174182
1	528	87.256767062443	0.171462174182
1	533	88.554287202452	0.171462174182
1	540	91.446383914133	0.171462174182
1	543	91.617846088315	0.292994184336
1	548	93.665413789776	0.171462174182
1	553	93.84673425408	0.171462174182
1	558	94.094736960084	0.171462174182
1	563	95.205436245429	0.171462174182
1	568	96.546433343497	0.171462174182
1	573	101.018973963752	0.171462174182
1	578	101.463976117226	0.171462174182
1	583	103.065463263414	0.171462174182
1	588	106.248814789066	0.171462174182
1	597	109.614342889076	0.171462174182
1	600	109.785805063258	0.30051338425
1	605	109.95726723744	0.36029612055
1	609	110.420847856055	0.62180554169
1	614	111.215614461405	0.171462174182
1	619	111.544479745666	0.171462174182
1	624	113.316250695525	0.171462174182
1	629	114.065587498205	0.171462174182
1	634	114.420318050527	0.171462174182
1	639	114.59983694488	0.171462174182
1	644	117.105285517278	0.171462174182
1	649	117.527252428641	0.171462174182
1	654	117.840395621775	0.171462174182
1	659	118.319412822459	0.171462174182
1	664	118.665489298331	0.171462174182
1	669	119.049933999805	0.171462174182
1	676	119.379393889364	0.171462174182
1	679	119.550856063546	0.257106848614
1	684	120.31345185663	0.171462174182
1	689	122.661125653385	0.171462174182
1	694	123.967530606253	0.171462174182
1	699	124.480708585911	0.171462174182
1	704	126.472973674262	0.171462174182
1	709	126.871591874707	0.171462174182
1	714	127.380444486052	0.171462174182
1	719	127.932611695178	0.171462174182
1	724	128.719125623224	0.171462174182
1	729	129.047357025813	0.171462174182
1	734	129.903790189939	0.171462174182
1	743	130.170402439731	0.171462174182
1	748	130.341864613913	0.21072407197
1	751	130.513326788095	0.368996592024
1	754	130.684788962277	0.394704560619
1	760	131.748878238348	0.171462174182
1	765	132.004991790701	0.171462174182
1	770	132.777835652239	0.171462174182
1	775	133.721241516502	0.171462174182
1	780	141.214241922813	0.171462174182
1	785	142.26076647004	0.171462174182
1	790	143.890222231052	0.171462174182
1	795	144.60970232261	0.171462174182
1	800	145.090492738424	0.171462174182
1	805	145.595715233948	0.171462174182
1	810	148.371057402565	0.171462174182
1	815	148.868420122015	0.171462174182
1	820	150.559298750609	0.171462174182
1	825	151.825317071984	0.171462174182
1	830	153.614125600652	0.171462174182
1	835	154.433687036747	0.171462174182
1	840	156.957743806141	0.171462174182
1	845	157.721830177186	0.171462174182
1	850	158.810885206617	0.171462174182
1	855	159.273869240222	0.171462174182
1	860	162.298087817707	0.171462174182
1	865	162.664431423214	0.171462174182
1	870	162.847346785103	0.171462174182
1	875	165.438175037928	0.171462174182
1	880	166.440917762895	0.171462174182
1	885	166.791846223851	0.171462174182
1	890	167.242254154288	0.171462174182
1	895	168.017158627071	0.171462174182
1	900	168.322040689233	0.171462174182
1	905	169.253688427058	0.171462174182
1	911	169.847012663006	0.171462174182
1	916	171.019438004674	0.171462174182
1	921	172.09784477465	0.171462174182
1	928	173.655080559597	0.171462174182
1	931	173.826542733779	0.192526055749
1	936	174.665961287262	0.171462174182
1	941	174.860283313653	0.171462174182
1	946	175.381203507692	0.171462174182
1	951	177.650922956629	0.171462174182
1	956	178.773695620305	0.171462174182
1	961	180.7161896647	0.171462174182
1	966	183.737125442143	0.171462174182
1	971	185.714922571995	0.171462174182
1	978	186.478886728726	0.171462174182
1	983	186.650348902908	0.245877467269
1	986	186.82181107709	0.236757320675
1	991	187.586003722051	0.171462174182
1	996	187.981137502351	0.171462174182
1	1003	189.385491287858	0.171462174182
1	1006	189.55695346204	0.307409421691
1	1013	190.221308482693	0.171462174182
1	1016	190.392770656875	0.267534264771
1	1021	191.673217292185	0.171462174182
1	1026	192.262909136388	0.171462174182
1	1031	194.20263869114	0.171462174182
1	1036	195.239831199828	0.171462174182
1	1041	195.796227182383	0.171462174182
1	1048	196.041800289935	0.171462174182
1	1053	196.213262464117	0.220166861481
1	1056	196.384724638299	0.294843370259
1	1062	197.939593798988	0.171462174182
1	1067	200.394954397344	0.171462174182
1	1072	203.425900132709	0.171462174182
1	1077	204.292675629541	0.171462174182
1	1082	206.480422196441	0.171462174182
1	1087	210.08074642334	0.171462174182
1	1094	212.711736270808	0.171462174182
1	1099	212.88319844499	0.204727354734
1	1104	213.054660619172	0.224672574004
1	1109	213.226122793354	0.305749169878
1	1114	213.397584967536	0.199310359845
1	1117	213.569047141718	0.172890463689
1	1122	215.011233641227	0.171462174182
1	1127	216.059000841479	0.171462174182
1	1132	216.915989248198	0.171462174182
1	1137	217.343683364421	0.171462174182
1	1142	217.842763366827	0.171462174182
1	1147	218.589610658116	0.171462174182
1	1152	219.307982869171	0.171462174182
1	1157	219.494724003448	0.171462174182
1	1162	219.729794130782	0.171462174182
1	1167	221.868499413587	0.171462174182
1	1172	222.858326505157	0.171462174182
1	1177	224.007490910141	0.171462174182
1	1182	225.015200436498	0.171462174182
1	1187	226.006598729458	0.171462174182
1	1192	227.416875567474	0.171462174182
1	1197	228.123115676721	0.171462174182
1	1204	229.094516107882	0.171462174182
1	1207	229.265978282064	0.205805055708
1	1213	231.169539228176	0.171462174182
1	1218	233.014394837721	0.171462174182
1	1223	233.481985484717	0.171462174182
1	1228	234.181379380529	0.171462174182
1	1233	234.443203846789	0.171462174182
1	1238	234.632013766512	0.171462174182
1	1243	236.130427447293	0.171462174182
1	1248	239.298991799671	0.171462174182
1	1255	239.875899960378	0.171462174182
1	1258	240.04736213456	0.300471452635
1	1263	242.764286658547	0.171462174182
1	1268	243.171468677445	0.171462174182
1	1273	244.108381555167	0.171462174182
1	1280	245.432667806958	0.171462174182
1	1283	245.60412998114	0.230127450172
1	1288	246.042780413723	0.171462174182
1	1293	248.383838276583	0.171462174182
1	1300	250.947894805444	0.171462174182
1	1303	251.119356979626	0.224286214019
1	1310	251.300602683446	0.171462174182
1	1313	251.472064857628	0.171566463228
1	1320	252.481021233593	0.171462174182
1	1323	252.652483407775	0.316442822734
1	1328	255.084063660134	0.171462174182
1	1333	255.546564739533	0.171462174182
1	1338	255.895859091483	0.171462174182
1	1343	260.996112093817	0.171462174182
1	1350	262.460164055748	0.171462174182
1	1353	262.63162622993	0.288686176878
1	1360	263.252133442285	0.171462174182
1	1366	263.7157140609	0.604072826543
1	1371	263.887176235082	0.37203899921
1	1374	264.058638409264	0.19391628007
1	1381	265.29083269907	0.171462174182
1	1384	265.462294873252	0.193143087414
1	1389	265.713973239076	0.171462174182
1	1394	265.929556274236	0.171462174182
1	1399	266.48193075052	0.171462174182
1	1406	266.922913780402	0.171462174182
1	1409	267.094375954584	0.211945998531
1	1414	268.811526541845	0.171462174182
1	1419	269.423786422217	0.171462174182
1	1424	270.590052480707	0.171462174182
1	1431	272.322770114808	0.171462174182
1	1434	272.49423228899	0.308419777482
1	1439	273.836209716649	0.171462174182
1	1444	274.009221225745	0.171462174182
1	1449	274.781566544077	0.171462174182
1	1456	276.268368112897	0.171462174182
1	1459	276.439830287079	0.195208043833
1	1464	277.348320038074	0.171462174182
1	1469	277.559566205213	0.171462174182
1	1474	280.469013095103	0.171462174182
1	1481	282.203377675683	0.171462174182
1	1484	282.374839849865	0.227390836254
1	1489	282.792076210945	0.171462174182
1	1494	283.725702617101	0.171462174182
1	1499	284.608425936123	0.171462174182
1	1504	287.65013098686	0.171462174182
1	1509	291.646332493619	0.171462174182
1	1515	293.155121582954	0.171462174182
1	1522	293.689343415242	0.171462174182
1	1525	293.860805589424	0.254447565823
1	1530	294.402754066734	0.171462174182
1	1535	294.872684950039	0.171462174182
1	1540	296.034354625351	0.171462174182
1	1547	296.642104055626	0.171462174182
1	1550	296.813566229808	0.300862379906
1	1555	297.915015810726	0.171462174182
1	1562	298.817208989211	0.171462174182
1	1565	298.988671163393	0.311580531404
1	1570	302.435211089221	0.171462174182
1	1575	304.794476813975	0.171462174182
1	1580	305.374695544845	0.171462174182
1	1585	305.722628493701	0.171462174182
1	1590	306.89929470418	0.171462174182
1	1595	307.322004050327	0.171462174182
1	1600	307.55919968621	0.171462174182
1	1607	308.042361760099	0.171462174182
1	1610	308.213823934281	0.312732262012
1	1615	309.524418965031	0.171462174182
1	1620	312.297315179025	0.171462174182
1	1627	312.573308141597	0.171462174182
1	1630	312.744770315779	0.244954539381
1	1635	313.876897657022	0.171462174182
1	1640	314.394711568066	0.171462174182
1	1645	314.783811764245	0.171462174182
1	1650	315.370418709085	0.171462174182
1	1657	315.577088825168	0.171462174182
1	1660	315.74855099935	0.250148623332
1	1666	316.212131617965	0.447617069511
1	1671	317.862956493489	0.171462174182
1	1678	318.245417534831	0.171462174182
1	1681	318.416879709013	0.207247969439
1	1686	318.653135255976	0.171462174182
1	1691	321.752253105762	0.171462174182
1	1696	322.32070687078	0.171462174182
1	1701	322.652624153757	0.171462174182
1	1706	322.891764112459	0.171462174182
1	1711	323.09554720672	0.171462174182
1	1716	325.367947095553	0.171462174182
1	1721	326.18339382273	0.171462174182
1	1726	326.638886742813	0.171462174182
1	1731	331.192951398755	0.171462174182
1	1736	331.592502944541	0.171462174182
1	1743	333.387334317998	0.171462174182
1	1746	333.55879649218	0.17659738719
1	1751	334.991927673464	0.171462174182
1	1756	336.465653813936	0.171462174182
1	1761	337.476129586977	0.171462174182
1	1766	338.819742570587	0.171462174182
1	1771	341.151331094792	0.171462174182
1	1778	341.917635245665	0.171462174182
1	1781	342.089097419847	0.178779773149
1	1786	343.011393551658	0.171462174182
1	1791	343.963942595306	0.171462174182
1	1796	344.83221925542	0.171462174182
1	1803	345.545310845852	0.171462174182
1	1806	345.716773020034	0.229917121743
1	1811	345.904603208677	0.171462174182
1	1819	346.368183827292	0.44779965931
1	1822	346.539646001474	0.476582309361
1	1827	348.603611024904	0.171462174182
1	1832	349.416545574995	0.171462174182
1	1837	354.159256483684	0.171462174182
1	1842	354.899176290589	0.171462174182
1	1847	355.799827338532	0.171462174182
1	1852	359.1827666034	0.171462174182
1	1859	361.710425782069	0.171462174182
1	1866	361.881887956251	0.250419388704
1	1869	362.053350130433	0.295078257876
1	1872	362.224812304615	0.463304694517
1	1877	364.187587178634	0.171462174182
1	1882	364.671428838107	0.171462174182
1	1887	365.288022180691	0.171462174182
1	1892	365.590781479557	0.171462174182
1	1897	367.618621360316	0.171462174182
1	1902	367.860136897213	0.171462174182
1	1907	369.599217605703	0.171462174182
1	1912	371.030929797101	0.171462174182
1	1917	372.752606979891	0.171462174182
1	1922	373.225609411537	0.171462174182
1	1927	375.092393350817	0.171462174182
1	1932	378.248916921162	0.171462174182
1	1937	379.623375960193	0.171462174182
1	1942	380.417956704267	0.171462174182
1	1947	381.402442928609	0.171462174182
1	1952	381.927340390414	0.171462174182
1	1957	383.035549577545	0.171462174182
1	1964	383.323029346531	0.171462174182
1	1968	383.786609965146	0.586583385404
1	1973	384.281229909257	0.171462174182
1	1978	385.8639266282	0.171462174182
1	1983	386.255454296027	0.171462174182
1	1988	386.825587870141	0.171462174182
1	1993	387.868907660952	0.171462174182
1	1998	388.086805888928	0.171462174182
1	2005	389.860056450334	0.171462174182
1	2008	390.031518624516	0.176828807072
1	2013	390.411183186853	0.171462174182
1	2018	391.824000723896	0.171462174182
1	2023	394.486324627204	0.171462174182
1	2030	395.769011018156	0.171462174182
1	2033	395.940473192338	0.273987481905
1	2038	397.991148104887	0.171462174182
1	2043	399.098321503086	0.171462174182
1	2048	399.784099087348	0.171462174182
1	2053	400.312923255582	0.171462174182
1	2058	400.605973700765	0.171462174182
1	2063	401.236961929509	0.171462174182
1	2068	401.606040268255	0.171462174182
1	2075	402.233456193568	0.171462174182
1	2078	402.40491836775	0.255790731964
1	2083	403.270389274863	0.171462174182
1	2088	403.748765661954	0.171462174182
1	2093	408.601367459293	0.171462174182
1	2098	410.73076739841	0.171462174182
1	2103	411.60062111155	0.171462174182
1	2110	412.120668196214	0.171462174182
1	2115	412.292130370396	0.302407310351
1	2121	412.755710989011	0.608296117513
1	2124	412.927173163193	0.42870183705
1	2131	413.638773737802	0.171462174182
1	2134	413.810235911984	0.240893865425
1	2139	416.269346522908	0.171462174182
1	2144	418.00558620631	0.171462174182
1	2149	418.494440895389	0.171462174182
1	2154	420.529838845848	0.171462174182
1	2159	420.863411123275	0.171462174182
1	2164	421.213510372567	0.171462174182
1	2169	423.992002264134	0.171462174182
1	2174	425.305985865891	0.171462174182
1	2179	426.99123518387	0.171462174182
1	2184	427.957280063957	0.171462174182
1	2189	428.136124815713	0.171462174182
1	2194	430.143991947805	0.171462174182
1	2199	431.544136057603	0.171462174182
1	2204	433.366028295461	0.171462174182
1	2209	434.688050144557	0.171462174182
1	2214	435.355093796147	0.171462174182
1	2219	436.066215883175	0.171462174182
1	2224	437.880743677392	0.171462174182
1	2229	438.811455044431	0.171462174182
1	2234	439.286041890353	0.171462174182
1	2239	442.646660938183	0.171462174182
1	2246	443.199789721884	0.171462174182
1	2249	443.371251896066	0.224156928989
1	2254	444.273056504082	0.171462174182
1	2259	446.181708865652	0.171462174182
1	2264	447.074960992115	0.171462174182
1	2270	447.731807373156	0.171462174182
1	2275	448.031213649824	0.171462174182
1	2280	449.96767774864	0.171462174182
1	2285	452.946884220556	0.171462174182
1	2290	453.135449839978	0.171462174182
1	2295	453.586296589206	0.171462174182
1	2300	454.48107902743	0.171462174182
1	2305	455.189204652562	0.171462174182
1	2310	455.95098274199	0.171462174182
1	2315	457.312775232306	0.171462174182
1	2320	458.114647192431	0.171462174182
1	2325	459.650510611061	0.171462174182
1	2330	460.902826321703	0.171462174182
1	2335	461.119246550406	0.171462174182
1	2340	461.76292887536	0.171462174182
1	2345	463.571930974802	0.171462174182
1	2350	464.76535125118	0.171462174182
1	2357	466.861634175215	0.171462174182
1	2360	467.033096349397	0.239390701426
1	2365	468.091044936234	0.171462174182
1	2370	468.317826613462	0.171462174182
1	2375	469.210352754467	0.171462174182
1	2380	469.607037782489	0.171462174182
1	2385	470.171140823901	0.171462174182
1	2390	471.43533646793	0.171462174182
1	2399	471.73971465809	0.171462174182
1	2402	471.911176832272	0.282950020378
1	2405	472.082639006454	0.433488362933
1	2410	472.576230391457	0.171462174182
1	2415	473.623946600889	0.171462174182
1	2421	475.110459025098	0.171462174182
1	2426	477.717907363481	0.171462174182
1	2433	478.606049196184	0.171462174182
1	2436	478.777511370366	0.214086183568
1	2441	479.228112790226	0.171462174182
1	2446	479.725007562987	0.171462174182
1	2451	481.861503549306	0.171462174182
1	2456	482.465308921594	0.171462174182
1	2461	483.332231062669	0.171462174182
1	2466	483.812398026497	0.171462174182
1	2471	484.238373664816	0.171462174182
1	2476	485.050689819941	0.171462174182
1	2481	485.527984045484	0.171462174182
1	2486	488.25919435774	0.171462174182
1	2491	493.097660798844	0.171462174182
1	2496	493.359537324405	0.171462174182
1	2501	493.637795782076	0.171462174182
1	2506	494.077869190597	0.171462174182
1	2511	498.165612922613	0.171462174182
1	2518	498.567738585895	0.171462174182
1	2521	498.739200760077	0.179664904754
1	2526	499.199499007068	0.171462174182
1	2531	499.383468839021	0.171462174182
1	2536	499.723350949044	0.171462174182
1	2541	500.285349204368	0.171462174182
1	2546	503.993617338791	0.171462174182
1	2551	505.224349944565	0.171462174182
1	2556	506.244524586633	0.171462174182
1	2561	507.405782496029	0.171462174182
1	2566	509.278658825321	0.171462174182
1	2572	511.013257248795	0.171462174182
1	2577	511.20356745825	0.171462174182
1	2582	511.501707720143	0.171462174182
1	2587	512.830804502816	0.171462174182
1	2594	513.972811071126	0.171462174182
1	2599	514.144273245308	0.273424021746
1	2604	514.31573541949	0.280414527184
1	2607	514.487197593672	0.188130071096
1	2612	515.029965633025	0.171462174182
1	2617	515.808577605911	0.171462174182
1	2624	516.277939292096	0.171462174182
1	2627	516.449401466278	0.278927600407
1	2632	517.996542245568	0.171462174182
1	2637	521.055044129205	0.171462174182
1	2642	521.71024582667	0.171462174182
1	2649	522.66733794938	0.171462174182
1	2656	522.838800123562	0.202095702451
1	2659	523.010262297744	0.335245957976
1	2662	523.181724471926	0.346697365746
1	2667	524.113361923805	0.171462174182
1	2672	526.040311950618	0.171462174182
1	2677	528.67315097996	0.171462174182
1	2682	529.57235040476	0.171462174182
1	2687	533.094810247098	0.171462174182
1	2692	533.359148002666	0.171462174182
1	2697	535.611357851308	0.171462174182
1	2702	536.02908250274	0.171462174182
1	2707	536.614523590602	0.171462174182
1	2714	538.407264648319	0.171462174182
1	2717	538.578726822501	0.231627271207
1	2723	539.105785567882	0.171462174182
1	2730	539.361990651157	0.171462174182
1	2733	539.533452825339	0.33833978531
1	2738	540.292003380706	0.171462174182
1	2743	542.875939991225	0.171462174182
1	2748	543.153242657837	0.171462174182
1	2753	544.839259003467	0.171462174182
1	2758	545.182546954118	0.171462174182
1	2765	546.311515195	0.171462174182
1	2768	546.482977369182	0.317693706798
1	2773	547.336677685571	0.171462174182
1	2780	548.19356643786	0.171462174182
1	2785	548.365028612042	0.292212005675
1	2790	548.536490786224	0.252169455308
1	2793	548.707952960406	0.281466335638
1	2800	549.614618540498	0.171462174182
1	2803	549.78608071468	0.292768143694
1	2808	550.710044957896	0.171462174182
1	2813	551.227438371781	0.171462174182
1	2818	553.947709012141	0.171462174182
1	2823	555.434018146147	0.171462174182
1	2828	556.823464471802	0.171462174182
1	2835	557.259862322112	0.171462174182
1	2842	557.431324496294	0.340215774182
1	2845	557.602786670476	0.216437165505
1	2848	557.774248844658	0.344293839225
1	2855	560.240237172144	0.171462174182
1	2858	560.411699346326	0.320224944654
1	2865	564.639467299024	0.171462174182
1	2868	564.810929473206	0.337864289352
1	2874	565.274510091821	0.198931894973
1	2879	568.270122276424	0.171462174182
1	2884	569.400813641149	0.171462174182
1	2889	569.986732030582	0.171462174182
1	2894	570.20594389989	0.171462174182
1	2899	570.554333462406	0.171462174182
1	2904	570.736374754039	0.171462174182
1	2909	571.015258318838	0.171462174182
1	2914	571.780045267873	0.171462174182
1	2919	572.899430436437	0.171462174182
1	2924	573.611870530635	0.171462174182
1	2929	574.314488868908	0.171462174182
1	2934	574.592237668523	0.171462174182
1	2939	575.375951546949	0.171462174182
1	2944	576.363771498854	0.171462174182
1	2949	577.735690129737	0.171462174182
1	2954	578.392695909887	0.171462174182
1	2959	578.650503423641	0.171462174182
1	2964	581.70006975474	0.171462174182
1	2969	582.117650709559	0.171462174182
1	2974	582.78235614735	0.171462174182
1	2979	585.318976278622	0.171462174182
1	2984	585.867642492594	0.171462174182
1	2989	586.058119277594	0.171462174182
1	2994	586.935094510827	0.171462174182
1	3001	588.262366149481	0.171462174182
1	3004	588.433828323663	0.259909576449
1	3011	589.633234630216	0.171462174182
1	3014	589.804696804398	0.242988567987
1	3019	590.213998697933	0.171462174182
1	3027	591.205739963013	0.171462174182
1	3030	591.377202137195	0.222339571266
1	3035	591.977430178668	0.171462174182
1	3040	592.406839550524	0.171462174182
1	3047	594.104958581082	0.171462174182
1	3050	594.276420755264	0.267132313223
1	3055	594.725836366033	0.171462174182
1	3060	596.072669381105	0.171462174182
1	3065	598.391305420559	0.171462174182
1	3074	599.683771584827	0.171462174182
1	3077	599.855233759009	0.243522039138
1	3080	600.026695933191	0.383749392975
1	3087	600.637991019153	0.171462174182
1	3090	600.809453193335	0.277120463043
1	3095	601.252397916975	0.171462174182
1	3100	601.479629899689	0.171462174182
1	3105	601.714553751946	0.171462174182
1	3110	603.406905142092	0.171462174182
1	3115	603.851791809209	0.171462174182
1	3120	604.809279053586	0.171462174182
1	3125	605.079491887332	0.171462174182
1	3130	605.287196344793	0.171462174182
1	3135	605.5440716054	0.171462174182
1	3140	605.895682682248	0.171462174182
1	3145	606.104703457776	0.171462174182
1	3152	606.28064536418	0.171462174182
1	3155	606.452107538362	0.317663842156
1	3160	607.029910244017	0.171462174182
1	3165	607.238927364008	0.171462174182
1	3170	610.916056646309	0.171462174182
1	3176	612.172050295238	0.171462174182
1	3181	614.177809025656	0.171462174182
1	3186	615.331398542481	0.171462174182
1	3191	617.078171751787	0.171462174182
1	3196	617.427460548984	0.171462174182
1	3201	617.864646562243	0.171462174182
1	3206	618.53290649238	0.171462174182
1	3211	618.810551381845	0.171462174182
1	3216	620.758553868337	0.171462174182
1	3221	621.394326547874	0.171462174182
1	3226	621.642219620387	0.171462174182
1	3231	623.536984108962	0.171462174182
1	3236	624.154133272562	0.171462174182
1	3241	624.992277268199	0.171462174182
1	3246	626.365986650926	0.171462174182
1	3255	627.645620373405	0.171462174182
1	3258	627.817082547587	0.285696268429
1	3261	627.988544721769	0.394030820892
1	3266	629.498600960874	0.171462174182
1	3271	630.001941700236	0.171462174182
1	3276	631.053847129127	0.171462174182
1	3281	633.330904818035	0.171462174182
1	3286	634.337937516347	0.171462174182
1	3291	635.069470825574	0.171462174182
1	3296	635.689853481865	0.171462174182
1	3301	637.231542169389	0.171462174182
1	3306	638.161381247487	0.171462174182
1	3313	639.244834378123	0.171462174182
1	3316	639.416296552305	0.210632509276
1	3321	641.233632325438	0.171462174182
1	3327	641.697212944053	0.258419919463
1	3332	642.565277308129	0.171462174182
1	3337	643.290393958616	0.171462174182
1	3342	646.359478010081	0.171462174182
1	3349	649.447612371653	0.171462174182
1	3352	649.619074545835	0.177124476709
1	3357	650.647708407473	0.171462174182
1	3362	651.031958000979	0.171462174182
1	3367	651.317896576339	0.171462174182
1	3372	651.608283113191	0.171462174182
1	3377	653.225633950931	0.171462174182
1	3382	654.609373117951	0.171462174182
1	3387	654.784135131414	0.171462174182
1	3392	655.068316421874	0.171462174182
1	3399	659.590332298195	0.171462174182
1	3402	659.761794472377	0.310410469714
1	3409	661.796724523237	0.171462174182
1	3412	661.968186697419	0.214905364375
1	3417	663.355083549973	0.171462174182
1	3422	667.542991551344	0.171462174182
1	3427	667.89709514157	0.171462174182
1	3432	668.428466135331	0.171462174182
1	3437	671.802006500272	0.171462174182
1	3442	672.706323530323	0.171462174182
1	3449	673.308631513068	0.171462174182
1	3452	673.48009368725	0.275402952685
1	3457	673.852523491628	0.171462174182
1	3462	674.099946450929	0.171462174182
1	3467	674.418773058645	0.171462174182
1	3472	678.695748845656	0.171462174182
1	3478	679.485215074286	0.171462174182
1	3485	680.073631852872	0.171462174182
1	3488	680.245094027054	0.294014635824
1	3493	680.716075991839	0.171462174182
1	3502	681.567736211396	0.171462174182
1	3505	681.739198385578	0.269507009339
1	3508	681.91066055976	0.376443670764
1	3513	683.623263122945	0.171462174182
1	3518	683.911402913552	0.171462174182
1	3523	684.411004787891	0.171462174182
1	3528	685.169158744017	0.171462174182
1	3533	685.522448429427	0.171462174182
1	3538	688.100198058547	0.171462174182
1	3545	688.428964342437	0.171462174182
1	3550	688.600426516619	0.301238301653
1	3555	688.771888690801	0.292785593667
1	3558	688.943350864983	0.211458713632
1	3563	689.842158140848	0.171462174182
1	3568	690.704651501922	0.171462174182
1	3573	691.648096179653	0.171462174182
1	3578	691.828011223202	0.171462174182
1	3583	693.14148992976	0.171462174182
1	3588	696.657183178517	0.171462174182
1	3593	697.335906961273	0.171462174182
1	3598	698.575671653074	0.171462174182
1	3603	699.192672146421	0.171462174182
1	3608	700.648818684384	0.171462174182
1	3613	706.872258939145	0.171462174182
1	3622	707.261352559624	0.171462174182
1	3627	707.432814733806	0.321166481953
1	3631	707.896395352421	0.74199252562
1	3634	708.067857526603	0.738293083852
1	3639	709.937974912982	0.171462174182
1	3644	710.829228356012	0.171462174182
1	3649	712.002729105193	0.171462174182
1	3654	712.574920519053	0.171462174182
1	3661	713.330825169929	0.171462174182
1	3666	713.502287344111	0.332917831444
1	3669	713.673749518293	0.320565392521
1	3674	717.478504384676	0.171462174182
1	3679	717.882889400894	0.171462174182
1	3684	718.211932478327	0.171462174182
1	3689	718.653120399469	0.171462174182
1	3694	718.898463777117	0.171462174182
1	3699	719.549631659682	0.171462174182
1	3704	721.599736167744	0.171462174182
1	3711	723.367968982921	0.171462174182
1	3714	723.539431157103	0.295009424898
1	3719	724.844295355439	0.171462174182
1	3724	725.127390334976	0.171462174182
1	3731	725.942476680343	0.171462174182
1	3736	726.113938854525	0.198455521925
1	3739	726.285401028707	0.209902341569
1	3744	726.731260421792	0.171462174182
1	3749	727.410713625991	0.171462174182
1	3754	728.26102379462	0.171462174182
1	3759	729.976262705006	0.171462174182
1	3764	730.250262935085	0.171462174182
1	3771	730.647871574017	0.171462174182
1	3774	730.819333748199	0.204825622552
1	3780	731.593949137255	0.171462174182
1	3785	735.311120905271	0.171462174182
1	3790	735.810278789781	0.171462174182
1	3795	737.985939690572	0.171462174182
1	3800	738.371707675349	0.171462174182
1	3805	739.085686987056	0.171462174182
1	3812	739.323615017062	0.171462174182
1	3817	739.495077191244	0.301164662557
1	3820	739.666539365426	0.26374071156
1	3825	741.260467984862	0.171462174182
1	3830	742.550187991954	0.171462174182
1	3835	743.267982279158	0.171462174182
1	3842	743.533660784563	0.171462174182
1	3845	743.705122958745	0.278827114409
1	3850	747.661718974826	0.171462174182
1	3855	748.389567889855	0.171462174182
1	3860	749.958383706336	0.171462174182
1	3865	750.520336477977	0.171462174182
1	3870	755.034662444676	0.171462174182
1	3875	756.441610523675	0.171462174182
1	3880	759.128087841669	0.171462174182
1	3885	760.598657554926	0.171462174182
1	3890	762.014257991616	0.171462174182
1	3895	765.433993741327	0.171462174182
1	3900	769.60390469316	0.171462174182
1	3905	769.897578158234	0.171462174182
1	3910	771.10517889865	0.171462174182
1	3915	771.524665110135	0.171462174182
1	3920	772.06524730829	0.171462174182
1	3925	772.472379612144	0.171462174182
1	3931	773.51100730413	0.171462174182
1	3936	774.834210740457	0.171462174182
1	3941	776.330233310842	0.171462174182
1	3946	779.273280092496	0.171462174182
1	3951	779.941652148781	0.171462174182
1	3956	780.786816183895	0.171462174182
1	3961	783.99477269466	0.171462174182
1	3966	785.44906414396	0.171462174182
1	3971	788.262997879838	0.171462174182
1	3976	789.259337644483	0.171462174182
1	3981	790.285476477728	0.171462174182
1	3986	791.977966168497	0.171462174182
1	3991	792.333865817992	0.171462174182
1	3996	793.549223086093	0.171462174182
1	4001	794.986969934749	0.171462174182
1	4006	795.535143310858	0.171462174182
1	4011	797.441528348186	0.171462174182
1	4016	798.25952510572	0.171462174182
1	4023	799.05084529915	0.171462174182
1	4026	799.222307473332	0.269706566506
1	4031	799.66233840918	0.171462174182
1	4036	803.287478537359	0.171462174182
1	4041	804.00778768216	0.171462174182
1	4046	804.294636064678	0.171462174182
1	4051	804.761590275794	0.171462174182
1	4056	805.154730157283	0.171462174182
1	4061	805.542703988514	0.171462174182
1	4066	806.016681825149	0.171462174182
1	4071	806.373782923392	0.171462174182
1	4076	808.740739752802	0.171462174182
1	4082	811.407184604534	0.171462174182
1	4089	812.000943822304	0.171462174182
1	4092	812.172405996486	0.310741614828
1	4097	812.365610022381	0.171462174182
1	4102	814.331477481153	0.171462174182
1	4111	814.559310308911	0.171462174182
1	4114	814.730772483093	0.331926996886
1	4117	814.902234657275	0.426923432451
1	4122	816.5292177394	0.171462174182
1	4127	817.869793011065	0.171462174182
1	4132	820.266670313159	0.171462174182
1	4137	820.720138778696	0.171462174182
1	4144	821.417684206326	0.171462174182
1	4147	821.589146380508	0.211288008958
1	4154	822.402755618913	0.171462174182
1	4157	822.574217793095	0.323545160958
1	4162	823.216058442349	0.171462174182
1	4167	823.693147525067	0.171462174182
1	4172	825.025325426908	0.171462174182
1	4177	825.840942573653	0.171462174182
1	4184	826.384679233387	0.171462174182
1	4187	826.556141407569	0.28532306545
1	4196	827.256513003539	0.171462174182
1	4199	827.427975177721	0.260682104775
1	4204	827.599437351903	0.378882147784
1	4207	827.770899526085	0.245537086437
1	4212	830.011877718425	0.171462174182
1	4219	831.010412529641	0.171462174182
1	4222	831.181874703823	0.303722129467
1	4227	832.23208801464	0.171462174182
1	4233	833.387102386534	0.171462174182
1	4238	833.860397093111	0.171462174182
1	4243	834.144291200166	0.171462174182
1	4248	834.964112842358	0.171462174182
1	4253	835.727706282158	0.171462174182
1	4260	838.658826924583	0.171462174182
1	4263	838.830289098765	0.252633052481
1	4268	840.854089812315	0.171462174182
1	4275	841.623138740411	0.171462174182
1	4278	841.794600914593	0.314819195359
1	4285	843.243482519488	0.171462174182
1	4288	843.41494469367	0.216598211907
1	4293	845.191651606221	0.171462174182
1	4302	845.644839643436	0.171462174182
1	4305	845.816301817618	0.319420538827
1	4308	845.9877639918	0.475055913488
1	4313	847.196433241287	0.171462174182
1	4320	848.567797021967	0.171462174182
1	4323	848.739259196149	0.1762688415
1	4328	849.024142876265	0.171462174182
1	4333	849.868632812879	0.171462174182
1	4338	850.21418428082	0.171462174182
1	4343	851.589915929266	0.171462174182
1	4348	854.971708924302	0.171462174182
1	4353	856.076234067829	0.171462174182
1	4360	858.269579770958	0.171462174182
1	4363	858.44104194514	0.192663566706
1	4368	858.915180796435	0.171462174182
1	4373	859.891513416986	0.171462174182
1	4378	862.781639905307	0.171462174182
1	4384	863.724237338512	0.171462174182
1	4389	864.294124778156	0.171462174182
1	4394	866.411281847006	0.171462174182
1	4399	866.900370031576	0.171462174182
1	4404	869.003255370954	0.171462174182
1	4409	869.532420012567	0.171462174182
1	4414	871.262359799988	0.171462174182
1	4419	872.541632383508	0.171462174182
1	4424	872.732461713612	0.171462174182
1	4429	873.756512698112	0.171462174182
1	4434	875.787512286971	0.171462174182
1	4439	876.305603742753	0.171462174182
1	4444	877.076141116851	0.171462174182
1	4449	878.949294667603	0.171462174182
1	4454	880.460514867179	0.171462174182
1	4461	884.72571938373	0.171462174182
1	4464	884.897181557912	0.173019139709
1	4469	885.878719752968	0.171462174182
1	4474	886.443747680113	0.171462174182
1	4479	887.839949735697	0.171462174182
1	4484	888.468826108572	0.171462174182
1	4489	889.718538076866	0.171462174182
1	4494	891.189121679333	0.171462174182
1	4499	894.839101238015	0.171462174182
1	4504	896.004159581472	0.171462174182
1	4509	896.740158526585	0.171462174182
1	4514	897.699058484731	0.171462174182
1	4519	903.041527088536	0.171462174182
1	4524	904.397753340719	0.171462174182
1	4529	904.7321358865	0.171462174182
1	4535	906.095024961027	0.171462174182
1	4540	906.43531960293	0.171462174182
1	4545	907.474796977018	0.171462174182
1	4552	907.734497996146	0.171462174182
1	4555	907.905960170328	0.307137495592
1	4560	910.779865649213	0.171462174182
1	4565	911.807620249078	0.171462174182
1	4570	912.004474218615	0.171462174182
1	4575	913.004904591415	0.171462174182
1	4580	914.752407523473	0.171462174182
1	4585	915.435463767409	0.171462174182
1	4592	915.751091598076	0.171462174182
1	4595	915.922553772258	0.31860506363
1	4600	916.423811290678	0.171462174182
1	4607	916.927748424567	0.171462174182
1	4610	917.099210598749	0.255657291237
1	4615	917.356231474805	0.171462174182
1	4620	920.139972371033	0.171462174182
1	4625	923.857484236898	0.171462174182
1	4630	926.185318813037	0.171462174182
1	4635	926.36034153052	0.171462174182
1	4640	927.233954724258	0.171462174182
1	4645	927.864672380184	0.171462174182
1	4650	928.076636933654	0.171462174182
1	4655	929.898435552375	0.171462174182
1	4660	930.359470110468	0.171462174182
1	4665	930.787890993831	0.171462174182
1	4670	931.312815281169	0.171462174182
1	4675	933.947555493717	0.171462174182
1	4680	935.465919201556	0.171462174182
1	4686	937.754765704196	0.171462174182
1	4693	938.352772485414	0.171462174182
1	4696	938.524234659596	0.176066436956
1	4701	939.889222896257	0.171462174182
1	4708	941.490423281113	0.171462174182
1	4711	941.661885455295	0.321209724758
1	4716	941.848308988449	0.171462174182
1	4721	942.848771136212	0.171462174182
1	4726	943.320219776579	0.171462174182
1	4731	944.020052108442	0.171462174182
1	4736	944.718735190749	0.171462174182
1	4741	945.379580121536	0.171462174182
1	4748	946.217606074617	0.171462174182
1	4751	946.389068248799	0.331864210204
1	4756	946.617412158859	0.171462174182
1	4761	947.597476251278	0.171462174182
1	4766	948.118900963278	0.171462174182
1	4771	948.585144079664	0.171462174182
1	4776	948.923721564801	0.171462174182
1	4783	949.473554111011	0.171462174182
1	4786	949.645016285193	0.277050259606
1	4791	952.898196866506	0.171462174182
1	4796	954.324206908989	0.171462174182
1	4801	955.096077999855	0.171462174182
1	4806	955.330910102387	0.171462174182
1	4811	955.999892855275	0.171462174182
1	4818	956.215651619973	0.171462174182
1	4823	956.387113794155	0.270409357012
1	4826	956.558575968337	0.319413482892
1	4831	957.034303213059	0.171462174182
1	4837	959.087487470729	0.171462174182
1	4842	960.02353335815	0.171462174182
1	4847	961.913911245484	0.171462174182
1	4852	963.353640466734	0.171462174182
1	4857	964.289174416349	0.171462174182
1	4862	965.815541926209	0.171462174182
1	4869	967.098883477053	0.171462174182
1	4872	967.270345651235	0.287535501829
1	4879	969.843140107855	0.171462174182
1	4882	970.014602282037	0.316302501893
1	4887	970.808661754472	0.171462174182
1	4892	971.578165055423	0.171462174182
1	4897	972.107272301337	0.171462174182
1	4902	974.478487328658	0.171462174182
1	4907	976.329237339855	0.171462174182
1	4912	976.915432301643	0.171462174182
1	4917	980.478338953426	0.171462174182
1	4926	981.715595041259	0.171462174182
1	4929	981.887057215441	0.320367502479
1	4932	982.058519389623	0.43091064805
1	4937	983.407994211888	0.171462174182
1	4944	984.469583136786	0.171462174182
1	4947	984.641045310968	0.291132671443
1	4952	986.789258236825	0.171462174182
1	4957	987.771740996918	0.171462174182
1	4962	990.716412266297	0.171462174182
1	4967	991.901044214726	0.171462174182
1	4972	992.160106387124	0.171462174182
1	4977	997.517640068994	0.171462174182
1	4982	998.208101355734	0.171462174182
1	4988	998.950624387649	0.171462174182
1	4993	999.704125590354	0.171462174182
2	5	0.944106774557	0
2	10	2.684584608856	0
2	15	3.861383534989	0
2	20	5.01334414379	0
2	25	7.343566931916	0
2	30	7.685390868202	0
2	35	9.281295512628	0
2	44	10.564952574611	0
2	47	10.736414748793	0.101877486497
2	50	10.907876922975	0.19992925709
2	55	11.126218404551	0
2	60	13.150994128834	0
2	65	13.454207485301	0
2	70	14.419764406487	0
2	75	15.288480927983	0
2	80	15.734726830419	0
2	85	17.486057806871	0
2	90	18.518646796315	0
2	97	19.135514526082	0
2	100	19.306976700264	0.169127765829
2	107	19.71725055797	0
2	110	19.888712732152	0.128601142568
2	115	21.420253437089	0
2	120	23.395901675743	0
2	129	23.596513999835	0
2	134	23.767976174017	0.063237583849
2	137	23.939438348199	0.215325757036
2	140	24.110900522381	0.197121947204
2	145	25.933506860265	0
2	150	26.678206347308	0
2	156	28.412703151458	0
2	161	28.820562280738	0
2	166	30.071877886837	0
2	171	31.492397413556	0
2	178	32.298350110392	0
2	181	32.469812284574	0.120505881093
2	186	34.000793120734	0
2	191	35.064039937555	0
2	196	35.348737178769	0
2	201	35.891455760824	0
2	206	36.668996057507	0
2	211	36.862934462538	0
2	216	37.204723995224	0
2	221	37.662778957014	0
2	226	39.081503442172	0
2	231	39.389999922858	0
2	236	39.593278408422	0
2	241	41.124804646493	0
2	248	41.920571137167	0
2	251	42.092033311349	0.055192125634
2	256	42.310578289638	0
2	261	43.153570228133	0
2	266	43.919879146077	0
2	273	44.949422544055	0
2	276	45.120884718237	0.102311836014
2	281	45.862533011392	0
2	290	46.452692287524	0
2	293	46.624154461706	0.160555758224
2	298	46.795616635888	0.283716830896
2	301	46.96707881007	0.085737740353
2	309	47.430659428685	0.253684609888
2	314	47.602121602867	0.124796864411
2	317	47.773583777049	0.164779825927
2	324	48.31246862951	0
2	327	48.483930803692	0.078871455422
2	332	50.148946318958	0
2	337	51.294391984501	0
2	342	51.466246192717	0
2	347	51.681246546472	0
2	352	53.007624712583	0
2	357	58.287522518361	0
2	362	58.698513978964	0
2	367	60.047614872651	0
2	372	61.511517745688	0
2	379	63.167446552788	0
2	382	63.33890872697	0.03442652993
2	387	65.165199310168	0
2	392	66.83938811156	0
2	397	67.235431678059	0
2	402	67.412608120807	0
2	407	68.07449571125	0
2	412	68.32398661325	0
2	419	69.105064614347	0
2	422	69.276526788529	0.081948814536
2	427	71.806979742298	0
2	432	72.383247036238	0
2	437	73.303594471074	0
2	442	73.62307658583	0
2	447	74.1599483283	0
2	452	77.593746872312	0
2	460	78.057327490927	0.094070311221
2	463	78.228789665109	0.024811945007
2	468	79.175043999718	0
2	473	79.674845461775	0
2	478	80.748093683584	0
2	483	81.995896862971	0
2	490	82.58848018929	0
2	495	82.759942363472	0.10717372783
2	498	82.931404537654	0.116564699661
2	503	84.117372799667	0
2	508	84.69297625398	0
2	513	85.160164962644	0
2	518	85.914483158938	0
2	523	86.944697877062	0
2	528	87.256767062443	0
2	533	88.554287202452	0
2	540	91.446383914133	0
2	543	91.617846088315	0.121532010154
2	548	93.665413789776	0
2	553	93.84673425408	0
2	558	94.094736960084	0
2	563	95.205436245429	0
2	568	96.546433343497	0
2	573	101.018973963752	0
2	578	101.463976117226	0
2	583	103.065463263414	0
2	588	106.248814789066	0
2	597	109.614342889076	0
2	600	109.785805063258	0.129051210068
2	605	109.95726723744	0.188833946368
2	609	110.420847856055	0.450343367508
2	614	111.215614461405	0
2	619	111.544479745666	0
2	624	113.316250695525	0
2	629	114.065587498205	0
2	634	114.420318050527	0
2	639	114.59983694488	0
2	644	117.105285517278	0
2	649	117.527252428641	0
2	654	117.840395621775	0
2	659	118.319412822459	0
2	664	118.665489298331	0
2	669	119.049933999805	0
2	676	119.379393889364	0
2	679	119.550856063546	0.085644674432
2	684	120.31345185663	0
2	689	122.661125653385	0
2	694	123.967530606253	0
2	699	124.480708585911	0
2	704	126.472973674262	0
2	709	126.871591874707	0
2	714	127.380444486052	0
2	719	127.932611695178	0
2	724	128.719125623224	0
2	729	129.047357025813	0
2	734	129.903790189939	0
2	743	130.170402439731	0
2	748	130.341864613913	0.039261897788
2	751	130.513326788095	0.197534417842
2	754	130.684788962277	0.223242386437
2	760	131.748878238348	0
2	765	132.004991790701	0
2	770	132.777835652239	0
2	775	133.721241516502	0
2	780	141.214241922813	0
2	785	142.26076647004	0
2	790	143.890222231052	0
2	795	144.60970232261	0
2	800	145.090492738424	0
2	805	145.595715233948	0
2	810	148.371057402565	0
2	815	148.868420122015	0
2	820	150.559298750609	0
2	825	151.825317071984	0
2	830	153.614125600652	0
2	835	154.433687036747	0
2	840	156.957743806141	0
2	845	157.721830177186	0
2	850	158.810885206617	0
2	855	159.273869240222	0
2	860	162.298087817707	0
2	865	162.664431423214	0
2	870	162.847346785103	0
2	875	165.438175037928	0
2	880	166.440917762895	0
2	885	166.791846223851	0
2	890	167.242254154288	0
2	895	168.017158627071	0
2	900	168.322040689233	0
2	905	169.253688427058	0
2	911	169.847012663006	0
2	916	171.019438004674	0
2	921	172.09784477465	0
2	928	173.655080559597	0
2	931	173.826542733779	0.021063881567
2	936	174.665961287262	0
2	941	174.860283313653	0
2	946	175.381203507692	0
2	951	177.650922956629	0
2	956	178.773695620305	0
2	961	180.7161896647	0
2	966	183.737125442143	0
2	971	185.714922571995	0
2	978	186.478886728726	0
2	983	186.650348902908	0.074415293087
2	986	186.82181107709	0.065295146493
2	991	187.586003722051	0
2	996	187.981137502351	0
2	1003	189.385491287858	0
2	1006	189.55695346204	0.135947247509
2	1013	190.221308482693	0
2	1016	190.392770656875	0.096072090589
2	1021	191.673217292185	0
2	1026	192.262909136388	0
2	1031	194.20263869114	0
2	1036	195.239831199828	0
2	1041	195.796227182383	0
2	1048	196.041800289935	0
2	1053	196.213262464117	0.048704687299
2	1056	196.384724638299	0.123381196077
2	1062	197.939593798988	0
2	1067	200.394954397344	0
2	1072	203.425900132709	0
2	1077	204.292675629541	0
2	1082	206.480422196441	0
2	1087	210.08074642334	0
2	1094	212.711736270808	0
2	1099	212.88319844499	0.033265180552
2	1104	213.054660619172	0.053210399822
2	1109	213.226122793354	0.134286995696
2	1114	213.397584967536	0.027848185663
2	1117	213.569047141718	0.001428289507
2	1122	215.011233641227	0
2	1127	216.059000841479	0
2	1132	216.915989248198	0
2	1137	217.343683364421	0
2	1142	217.842763366827	0
2	1147	218.589610658116	0
2	1152	219.307982869171	0
2	1157	219.494724003448	0
2	1162	219.729794130782	0
2	1167	221.868499413587	0
2	1172	222.858326505157	0
2	1177	224.007490910141	0
2	1182	225.015200436498	0
2	1187	226.006598729458	0
2	1192	227.416875567474	0
2	1197	228.123115676721	0
2	1204	229.094516107882	0
2	1207	229.265978282064	0.034342881526
2	1213	231.169539228176	0
2	1218	233.014394837721	0
2	1223	233.481985484717	0
2	1228	234.181379380529	0
2	1233	234.443203846789	0
2	1238	234.632013766512	0
2	1243	236.130427447293	0
2	1248	239.298991799671	0
2	1255	239.875899960378	0
2	1258	240.04736213456	0.129009278453
2	1263	242.764286658547	0
2	1268	243.171468677445	0
2	1273	244.108381555167	0
2	1280	245.432667806958	0
2	1283	245.60412998114	0.05866527599
2	1288	246.042780413723	0
2	1293	248.383838276583	0
2	1300	250.947894805444	0
2	1303	251.119356979626	0.052824039837
2	1310	251.300602683446	0
2	1313	251.472064857628	0.000104289046
2	1320	252.481021233593	0
2	1323	252.652483407775	0.144980648552
2	1328	255.084063660134	0
2	1333	255.546564739533	0
2	1338	255.895859091483	0
2	1343	260.996112093817	0
2	1350	262.460164055748	0
2	1353	262.63162622993	0.117224002696
2	1360	263.252133442285	0
2	1366	263.7157140609	0.432610652361
2	1371	263.887176235082	0.200576825028
2	1374	264.058638409264	0.022454105888
2	1381	265.29083269907	0
2	1384	265.462294873252	0.021680913232
2	1389	265.713973239076	0
2	1394	265.929556274236	0
2	1399	266.48193075052	0
2	1406	266.922913780402	0
2	1409	267.094375954584	0.040483824349
2	1414	268.811526541845	0
2	1419	269.423786422217	0
2	1424	270.590052480707	0
2	1431	272.322770114808	0
2	1434	272.49423228899	0.1369576033
2	1439	273.836209716649	0
2	1444	274.009221225745	0
2	1449	274.781566544077	0
2	1456	276.268368112897	0
2	1459	276.439830287079	0.023745869651
2	1464	277.348320038074	0
2	1469	277.559566205213	0
2	1474	280.469013095103	0
2	1481	282.203377675683	0
2	1484	282.374839849865	0.055928662072
2	1489	282.792076210945	0
2	1494	283.725702617101	0
2	1499	284.608425936123	0
2	1504	287.65013098686	0
2	1509	291.646332493619	0
2	1515	293.155121582954	0
2	1522	293.689343415242	0
2	1525	293.860805589424	0.082985391641
2	1530	294.402754066734	0
2	1535	294.872684950039	0
2	1540	296.034354625351	0
2	1547	296.642104055626	0
2	1550	296.813566229808	0.129400205724
2	1555	297.915015810726	0
2	1562	298.817208989211	0
2	1565	298.988671163393	0.140118357222
2	1570	302.435211089221	0
2	1575	304.794476813975	0
2	1580	305.374695544845	0
2	1585	305.722628493701	0
2	1590	306.89929470418	0
2	1595	307.322004050327	0
2	1600	307.55919968621	0
2	1607	308.042361760099	0
2	1610	308.213823934281	0.14127008783
2	1615	309.524418965031	0
2	1620	312.297315179025	0
2	1627	312.573308141597	0
2	1630	312.744770315779	0.073492365199
2	1635	313.876897657022	0
2	1640	314.394711568066	0
2	1645	314.783811764245	0
2	1650	315.370418709085	0
2	1657	315.577088825168	0
2	1660	315.74855099935	0.07868644915
2	1666	316.212131617965	0.276154895329
2	1671	317.862956493489	0
2	1678	318.245417534831	0
2	1681	318.416879709013	0.035785795257
2	1686	318.653135255976	0
2	1691	321.752253105762	0
2	1696	322.32070687078	0
2	1701	322.652624153757	0
2	1706	322.891764112459	0
2	1711	323.09554720672	0
2	1716	325.367947095553	0
2	1721	326.18339382273	0
2	1726	326.638886742813	0
2	1731	331.192951398755	0
2	1736	331.592502944541	0
2	1743	333.387334317998	0
2	1746	333.55879649218	0.005135213008
2	1751	334.991927673464	0
2	1756	336.465653813936	0
2	1761	337.476129586977	0
2	1766	338.819742570587	0
2	1771	341.151331094792	0
2	1778	341.917635245665	0
2	1781	342.089097419847	0.007317598967
2	1786	343.011393551658	0
2	1791	343.963942595306	0
2	1796	344.83221925542	0
2	1803	345.545310845852	0
2	1806	345.716773020034	0.058454947561
2	1811	345.904603208677	0
2	1819	346.368183827292	0.276337485128
2	1822	346.539646001474	0.305120135179
2	1827	348.603611024904	0
2	1832	349.416545574995	0
2	1837	354.159256483684	0
2	1842	354.899176290589	0
2	1847	355.799827338532	0
2	1852	359.1827666034	0
2	1859	361.710425782069	0
2	1866	361.881887956251	0.078957214522
2	1869	362.053350130433	0.123616083694
2	1872	362.224812304615	0.291842520335
2	1877	364.187587178634	0
2	1882	364.671428838107	0
2	1887	365.288022180691	0
2	1892	365.590781479557	0
2	1897	367.618621360316	0
2	1902	367.860136897213	0
2	1907	369.599217605703	0
2	1912	371.030929797101	0
2	1917	372.752606979891	0
2	1922	373.225609411537	0
2	1927	375.092393350817	0
2	1932	378.248916921162	0
2	1937	379.623375960193	0
2	1942	380.417956704267	0
2	1947	381.402442928609	0
2	1952	381.927340390414	0
2	1957	383.035549577545	0
2	1964	383.323029346531	0
2	1968	383.786609965146	0.415121211222
2	1973	384.281229909257	0
2	1978	385.8639266282	0
2	1983	386.255454296027	0
2	1988	386.825587870141	0
2	1993	387.868907660952	0
2	1998	388.086805888928	0
2	2005	389.860056450334	0
2	2008	390.031518624516	0.00536663289
2	2013	390.411183186853	0
2	2018	391.824000723896	0
2	2023	394.486324627204	0
2	2030	395.769011018156	0
2	2033	395.940473192338	0.102525307723
2	2038	397.991148104887	0
2	2043	399.098321503086	0
2	2048	399.784099087348	0
2	2053	400.312923255582	0
2	2058	400.605973700765	0
2	2063	401.236961929509	0
2	2068	401.606040268255	0
2	2075	402.233456193568	0
2	2078	402.40491836775	0.084328557782
2	2083	403.270389274863	0
2	2088	403.748765661954	0
2	2093	408.601367459293	0
2	2098	410.73076739841	0
2	2103	411.60062111155	0
2	2110	412.120668196214	0
2	2115	412.292130370396	0.130945136169
2	2121	412.755710989011	0.436833943331
2	2124	412.927173163193	0.257239662868
2	2131	413.638773737802	0
2	2134	413.810235911984	0.069431691243
2	2139	416.269346522908	0
2	2144	418.00558620631	0
2	2149	418.494440895389	0
2	2154	420.529838845848	0
2	2159	420.863411123275	0
2	2164	421.213510372567	0
2	2169	423.992002264134	0
2	2174	425.305985865891	0
2	2179	426.99123518387	0
2	2184	427.957280063957	0
2	2189	428.136124815713	0
2	2194	430.143991947805	0
2	2199	431.544136057603	0
2	2204	433.366028295461	0
2	2209	434.688050144557	0
2	2214	435.355093796147	0
2	2219	436.066215883175	0
2	2224	437.880743677392	0
2	2229	438.811455044431	0
2	2234	439.286041890353	0
2	2239	442.646660938183	0
2	2246	443.199789721884	0
2	2249	443.371251896066	0.052694754807
2	2254	444.273056504082	0
2	2259	446.181708865652	0
2	2264	447.074960992115	0
2	2270	447.731807373156	0
2	2275	448.031213649824	0
2	2280	449.96767774864	0
2	2285	452.946884220556	0
2	2290	453.135449839978	0
2	2295	453.586296589206	0
2	2300	454.48107902743	0
2	2305	455.189204652562	0
2	2310	455.95098274199	0
2	2315	457.312775232306	0
2	2320	458.114647192431	0
2	2325	459.650510611061	0
2	2330	460.902826321703	0
2	2335	461.119246550406	0
2	2340	461.76292887536	0
2	2345	463.571930974802	0
2	2350	464.76535125118	0
2	2357	466.861634175215	0
2	2360	467.033096349397	0.067928527244
2	2365	468.091044936234	0
2	2370	468.317826613462	0
2	2375	469.210352754467	0
2	2380	469.607037782489	0
2	2385	470.171140823901	0
2	2390	471.43533646793	0
2	2399	471.73971465809	0
2	2402	471.911176832272	0.111487846196
2	2405	472.082639006454	0.262026188751
2	2410	472.576230391457	0
2	2415	473.623946600889	0
2	2421	475.110459025098	0
2	2426	477.717907363481	0
2	2433	478.606049196184	0
2	2436	478.777511370366	0.042624009386
2	2441	479.228112790226	0
2	2446	479.725007562987	0
2	2451	481.861503549306	0
2	2456	482.465308921594	0
2	2461	483.332231062669	0
2	2466	483.812398026497	0
2	2471	484.238373664816	0
2	2476	485.050689819941	0
2	2481	485.527984045484	0
2	2486	488.25919435774	0
2	2491	493.097660798844	0
2	2496	493.359537324405	0
2	2501	493.637795782076	0
2	2506	494.077869190597	0
2	2511	498.165612922613	0
2	2518	498.567738585895	0
2	2521	498.739200760077	0.008202730572
2	2526	499.199499007068	0
2	2531	499.383468839021	0
2	2536	499.723350949044	0
2	2541	500.285349204368	0
2	2546	503.993617338791	0
2	2551	505.224349944565	0
2	2556	506.244524586633	0
2	2561	507.405782496029	0
2	2566	509.278658825321	0
2	2572	511.013257248795	0
2	2577	511.20356745825	0
2	2582	511.501707720143	0
2	2587	512.830804502816	0
2	2594	513.972811071126	0
2	2599	514.144273245308	0.101961847564
2	2604	514.31573541949	0.108952353002
2	2607	514.487197593672	0.016667896914
2	2612	515.029965633025	0
2	2617	515.808577605911	0
2	2624	516.277939292096	0
2	2627	516.449401466278	0.107465426225
2	2632	517.996542245568	0
2	2637	521.055044129205	0
2	2642	521.71024582667	0
2	2649	522.66733794938	0
2	2656	522.838800123562	0.030633528269
2	2659	523.010262297744	0.163783783794
2	2662	523.181724471926	0.175235191564
2	2667	524.113361923805	0
2	2672	526.040311950618	0
2	2677	528.67315097996	0
2	2682	529.57235040476	0
2	2687	533.094810247098	0
2	2692	533.359148002666	0
2	2697	535.611357851308	0
2	2702	536.02908250274	0
2	2707	536.614523590602	0
2	2714	538.407264648319	0
2	2717	538.578726822501	0.060165097025
2	2723	539.105785567882	0
2	2730	539.361990651157	0
2	2733	539.533452825339	0.166877611128
2	2738	540.292003380706	0
2	2743	542.875939991225	0
2	2748	543.153242657837	0
2	2753	544.839259003467	0
2	2758	545.182546954118	0
2	2765	546.311515195	0
2	2768	546.482977369182	0.146231532616
2	2773	547.336677685571	0
2	2780	548.19356643786	0
2	2785	548.365028612042	0.120749831493
2	2790	548.536490786224	0.080707281126
2	2793	548.707952960406	0.110004161456
2	2800	549.614618540498	0
2	2803	549.78608071468	0.121305969512
2	2808	550.710044957896	0
2	2813	551.227438371781	0
2	2818	553.947709012141	0
2	2823	555.434018146147	0
2	2828	556.823464471802	0
2	2835	557.259862322112	0
2	2842	557.431324496294	0.1687536
2	2845	557.602786670476	0.044974991323
2	2848	557.774248844658	0.172831665043
2	2855	560.240237172144	0
2	2858	560.411699346326	0.148762770472
2	2865	564.639467299024	0
2	2868	564.810929473206	0.16640211517
2	2874	565.274510091821	0.027469720791
2	2879	568.270122276424	0
2	2884	569.400813641149	0
2	2889	569.986732030582	0
2	2894	570.20594389989	0
2	2899	570.554333462406	0
2	2904	570.736374754039	0
2	2909	571.015258318838	0
2	2914	571.780045267873	0
2	2919	572.899430436437	0
2	2924	573.611870530635	0
2	2929	574.314488868908	0
2	2934	574.592237668523	0
2	2939	575.375951546949	0
2	2944	576.363771498854	0
2	2949	577.735690129737	0
2	2954	578.392695909887	0
2	2959	578.650503423641	0
2	2964	581.70006975474	0
2	2969	582.117650709559	0
2	2974	582.78235614735	0
2	2979	585.318976278622	0
2	2984	585.867642492594	0
2	2989	586.058119277594	0
2	2994	586.935094510827	0
2	3001	588.262366149481	0
2	3004	588.433828323663	0.088447402267
2	3011	589.633234630216	0
2	3014	589.804696804398	0.071526393805
2	3019	590.213998697933	0
2	3027	591.205739963013	0
2	3030	591.377202137195	0.050877397084
2	3035	591.977430178668	0
2	3040	592.406839550524	0
2	3047	594.104958581082	0
2	3050	594.276420755264	0.095670139041
2	3055	594.725836366033	0
2	3060	596.072669381105	0
2	3065	598.391305420559	0
2	3074	599.683771584827	0
2	3077	599.855233759009	0.072059864956
2	3080	600.026695933191	0.212287218793
2	3087	600.637991019153	0
2	3090	600.809453193335	0.105658288861
2	3095	601.252397916975	0
2	3100	601.479629899689	0
2	3105	601.714553751946	0
2	3110	603.406905142092	0
2	3115	603.851791809209	0
2	3120	604.809279053586	0
2	3125	605.079491887332	0
2	3130	605.287196344793	0
2	3135	605.5440716054	0
2	3140	605.895682682248	0
2	3145	606.104703457776	0
2	3152	606.28064536418	0
2	3155	606.452107538362	0.146201667974
2	3160	607.029910244017	0
2	3165	607.238927364008	0
2	3170	610.916056646309	0
2	3176	612.172050295238	0
2	3181	614.177809025656	0
2	3186	615.331398542481	0
2	3191	617.078171751787	0
2	3196	617.427460548984	0
2	3201	617.864646562243	0
2	3206	618.53290649238	0
2	3211	618.810551381845	0
2	3216	620.758553868337	0
2	3221	621.394326547874	0
2	3226	621.642219620387	0
2	3231	623.536984108962	0
2	3236	624.154133272562	0
2	3241	624.992277268199	0
2	3246	626.365986650926	0
2	3255	627.645620373405	0
2	3258	627.817082547587	0.114234094247
2	3261	627.988544721769	0.22256864671
2	3266	629.498600960874	0
2	3271	630.001941700236	0
2	3276	631.053847129127	0
2	3281	633.330904818035	0
2	3286	634.337937516347	0
2	3291	635.069470825574	0
2	3296	635.689853481865	0
2	3301	637.231542169389	0
2	3306	638.161381247487	0
2	3313	639.244834378123	0
2	3316	639.416296552305	0.039170335094
2	3321	641.233632325438	0
2	3327	641.697212944053	0.086957745281
2	3332	642.565277308129	0
2	3337	643.290393958616	0
2	3342	646.359478010081	0
2	3349	649.447612371653	0
2	3352	649.619074545835	0.005662302527
2	3357	650.647708407473	0
2	3362	651.031958000979	0
2	3367	651.317896576339	0
2	3372	651.608283113191	0
2	3377	653.225633950931	0
2	3382	654.609373117951	0
2	3387	654.784135131414	0
2	3392	655.068316421874	0
2	3399	659.590332298195	0
2	3402	659.761794472377	0.138948295532
2	3409	661.796724523237	0
2	3412	661.968186697419	0.043443190193
2	3417	663.355083549973	0
2	3422	667.542991551344	0
2	3427	667.89709514157	0
2	3432	668.428466135331	0
2	3437	671.802006500272	0
2	3442	672.706323530323	0
2	3449	673.308631513068	0
2	3452	673.48009368725	0.103940778503
2	3457	673.852523491628	0
2	3462	674.099946450929	0
2	3467	674.418773058645	0
2	3472	678.695748845656	0
2	3478	679.485215074286	0
2	3485	680.073631852872	0
2	3488	680.245094027054	0.122552461642
2	3493	680.716075991839	0
2	3502	681.567736211396	0
2	3505	681.739198385578	0.098044835157
2	3508	681.91066055976	0.204981496582
2	3513	683.623263122945	0
2	3518	683.911402913552	0
2	3523	684.411004787891	0
2	3528	685.169158744017	0
2	3533	685.522448429427	0
2	3538	688.100198058547	0
2	3545	688.428964342437	0
2	3550	688.600426516619	0.129776127471
2	3555	688.771888690801	0.121323419485
2	3558	688.943350864983	0.03999653945
2	3563	689.842158140848	0
2	3568	690.704651501922	0
2	3573	691.648096179653	0
2	3578	691.828011223202	0
2	3583	693.14148992976	0
2	3588	696.657183178517	0
2	3593	697.335906961273	0
2	3598	698.575671653074	0
2	3603	699.192672146421	0
2	3608	700.648818684384	0
2	3613	706.872258939145	0
2	3622	707.261352559624	0
2	3627	707.432814733806	0.149704307771
2	3631	707.896395352421	0.570530351438
2	3634	708.067857526603	0.56683090967
2	3639	709.937974912982	0
2	3644	710.829228356012	0
2	3649	712.002729105193	0
2	3654	712.574920519053	0
2	3661	713.330825169929	0
2	3666	713.502287344111	0.161455657262
2	3669	713.673749518293	0.149103218339
2	3674	717.478504384676	0
2	3679	717.882889400894	0
2	3684	718.211932478327	0
2	3689	718.653120399469	0
2	3694	718.898463777117	0
2	3699	719.549631659682	0
2	3704	721.599736167744	0
2	3711	723.367968982921	0
2	3714	723.539431157103	0.123547250716
2	3719	724.844295355439	0
2	3724	725.127390334976	0
2	3731	725.942476680343	0
2	3736	726.113938854525	0.026993347743
2	3739	726.285401028707	0.038440167387
2	3744	726.731260421792	0
2	3749	727.410713625991	0
2	3754	728.26102379462	0
2	3759	729.976262705006	0
2	3764	730.250262935085	0
2	3771	730.647871574017	0
2	3774	730.819333748199	0.03336344837
2	3780	731.593949137255	0
2	3785	735.311120905271	0
2	3790	735.810278789781	0
2	3795	737.985939690572	0
2	3800	738.371707675349	0
2	3805	739.085686987056	0
2	3812	739.323615017062	0
2	3817	739.495077191244	0.129702488375
2	3820	739.666539365426	0.092278537378
2	3825	741.260467984862	0
2	3830	742.550187991954	0
2	3835	743.267982279158	0
2	3842	743.533660784563	0
2	3845	743.705122958745	0.107364940227
2	3850	747.661718974826	0
2	3855	748.389567889855	0
2	3860	749.958383706336	0
2	3865	750.520336477977	0
2	3870	755.034662444676	0
2	3875	756.441610523675	0
2	3880	759.128087841669	0
2	3885	760.598657554926	0
2	3890	762.014257991616	0
2	3895	765.433993741327	0
2	3900	769.60390469316	0
2	3905	769.897578158234	0
2	3910	771.10517889865	0
2	3915	771.524665110135	0
2	3920	772.06524730829	0
2	3925	772.472379612144	0
2	3931	773.51100730413	0
2	3936	774.834210740457	0
2	3941	776.330233310842	0
2	3946	779.273280092496	0
2	3951	779.941652148781	0
2	3956	780.786816183895	0
2	3961	783.99477269466	0
2	3966	785.44906414396	0
2	3971	788.262997879838	0
2	3976	789.259337644483	0
2	3981	790.285476477728	0
2	3986	791.977966168497	0
2	3991	792.333865817992	0
2	3996	793.549223086093	0
2	4001	794.986969934749	0
2	4006	795.535143310858	0
2	4011	797.441528348186	0
2	4016	798.25952510572	0
2	4023	799.05084529915	0
2	4026	799.222307473332	0.098244392324
2	4031	799.66233840918	0
2	4036	803.287478537359	0
2	4041	804.00778768216	0
2	4046	804.294636064678	0
2	4051	804.761590275794	0
2	4056	805.154730157283	0
2	4061	805.542703988514	0
2	4066	806.016681825149	0
2	4071	806.373782923392	0
2	4076	808.740739752802	0
2	4082	811.407184604534	0
2	4089	812.000943822304	0
2	4092	812.172405996486	0.139279440646
2	4097	812.365610022381	0
2	4102	814.331477481153	0
2	4111	814.559310308911	0
2	4114	814.730772483093	0.160464822704
2	4117	814.902234657275	0.255461258269
2	4122	816.5292177394	0
2	4127	817.869793011065	0
2	4132	820.266670313159	0
2	4137	820.720138778696	0
2	4144	821.417684206326	0
2	4147	821.589146380508	0.039825834776
2	4154	822.402755618913	0
2	4157	822.574217793095	0.152082986776
2	4162	823.216058442349	0
2	4167	823.693147525067	0
2	4172	825.025325426908	0
2	4177	825.840942573653	0
2	4184	826.384679233387	0
2	4187	826.556141407569	0.113860891268
2	4196	827.256513003539	0
2	4199	827.427975177721	0.089219930593
2	4204	827.599437351903	0.207419973602
2	4207	827.770899526085	0.074074912255
2	4212	830.011877718425	0
2	4219	831.010412529641	0
2	4222	831.181874703823	0.132259955285
2	4227	832.23208801464	0
2	4233	833.387102386534	0
2	4238	833.860397093111	0
2	4243	834.144291200166	0
2	4248	834.964112842358	0
2	4253	835.727706282158	0
2	4260	838.658826924583	0
2	4263	838.830289098765	0.081170878299
2	4268	840.854089812315	0
2	4275	841.623138740411	0
2	4278	841.794600914593	0.143357021177
2	4285	843.243482519488	0
2	4288	843.41494469367	0.045136037725
2	4293	845.191651606221	0
2	4302	845.644839643436	0
2	4305	845.816301817618	0.147958364645
2	4308	845.9877639918	0.303593739306
2	4313	847.196433241287	0
2	4320	848.567797021967	0
2	4323	848.739259196149	0.004806667318
2	4328	849.024142876265	0
2	4333	849.868632812879	0
2	4338	850.21418428082	0
2	4343	851.589915929266	0
2	4348	854.971708924302	0
2	4353	856.076234067829	0
2	4360	858.269579770958	0
2	4363	858.44104194514	0.021201392524
2	4368	858.915180796435	0
2	4373	859.891513416986	0
2	4378	862.781639905307	0
2	4384	863.724237338512	0
2	4389	864.294124778156	0
2	4394	866.411281847006	0
2	4399	866.900370031576	0
2	4404	869.003255370954	0
2	4409	869.532420012567	0
2	4414	871.262359799988	0
2	4419	872.541632383508	0
2	4424	872.732461713612	0
2	4429	873.756512698112	0
2	4434	875.787512286971	0
2	4439	876.305603742753	0
2	4444	877.076141116851	0
2	4449	878.949294667603	0
2	4454	880.460514867179	0
2	4461	884.72571938373	0
2	4464	884.897181557912	0.001556965527
2	4469	885.878719752968	0
2	4474	886.443747680113	0
2	4479	887.839949735697	0
2	4484	888.468826108572	0
2	4489	889.718538076866	0
2	4494	891.189121679333	0
2	4499	894.839101238015	0
2	4504	896.004159581472	0
2	4509	896.740158526585	0
2	4514	897.699058484731	0
2	4519	903.041527088536	0
2	4524	904.397753340719	0
2	4529	904.7321358865	0
2	4535	906.095024961027	0
2	4540	906.43531960293	0
2	4545	907.474796977018	0
2	4552	907.734497996146	0
2	4555	907.905960170328	0.13567532141
2	4560	910.779865649213	0
2	4565	911.807620249078	0
2	4570	912.004474218615	0
2	4575	913.004904591415	0
2	4580	914.752407523473	0
2	4585	915.435463767409	0
2	4592	915.751091598076	0
2	4595	915.922553772258	0.147142889448
2	4600	916.423811290678	0
2	4607	916.927748424567	0
2	4610	917.099210598749	0.084195117055
2	4615	917.356231474805	0
2	4620	920.139972371033	0
2	4625	923.857484236898	0
2	4630	926.185318813037	0
2	4635	926.36034153052	0
2	4640	927.233954724258	0
2	4645	927.864672380184	0
2	4650	928.076636933654	0
2	4655	929.898435552375	0
2	4660	930.359470110468	0
2	4665	930.787890993831	0
2	4670	931.312815281169	0
2	4675	933.947555493717	0
2	4680	935.465919201556	0
2	4686	937.754765704196	0
2	4693	938.352772485414	0
2	4696	938.524234659596	0.004604262774
2	4701	939.889222896257	0
2	4708	941.490423281113	0
2	4711	941.661885455295	0.149747550576
2	4716	941.848308988449	0
2	4721	942.848771136212	0
2	4726	943.320219776579	0
2	4731	944.020052108442	0
2	4736	944.718735190749	0
2	4741	945.379580121536	0
2	4748	946.217606074617	0
2	4751	946.389068248799	0.160402036022
2	4756	946.617412158859	0
2	4761	947.597476251278	0
2	4766	948.118900963278	0
2	4771	948.585144079664	0
2	4776	948.923721564801	0
2	4783	949.473554111011	0
2	4786	949.645016285193	0.105588085424
2	4791	952.898196866506	0
2	4796	954.324206908989	0
2	4801	955.096077999855	0
2	4806	955.330910102387	0
2	4811	955.999892855275	0
2	4818	956.215651619973	0
2	4823	956.387113794155	0.09894718283
2	4826	956.558575968337	0.14795130871
2	4831	957.034303213059	0
2	4837	959.087487470729	0
2	4842	960.02353335815	0
2	4847	961.913911245484	0
2	4852	963.353640466734	0
2	4857	964.289174416349	0
2	4862	965.815541926209	0
2	4869	967.098883477053	0
2	4872	967.270345651235	0.116073327647
2	4879	969.843140107855	0
2	4882	970.014602282037	0.144840327711
2	4887	970.808661754472	0
2	4892	971.578165055423	0
2	4897	972.107272301337	0
2	4902	974.478487328658	0
2	4907	976.329237339855	0
2	4912	976.915432301643	0
2	4917	980.478338953426	0
2	4926	981.715595041259	0
2	4929	981.887057215441	0.148905328297
2	4932	982.058519389623	0.259448473868
2	4937	983.407994211888	0
2	4944	984.469583136786	0
2	4947	984.641045310968	0.119670497261
2	4952	986.789258236825	0
2	4957	987.771740996918	0
2	4962	990.716412266297	0
2	4967	991.901044214726	0
2	4972	992.160106387124	0
2	4977	997.517640068994	0
2	4982	998.208101355734	0
2	4988	998.950624387649	0
2	4993	999.704125590354	0
3	5	0.944106774557	0
3	10	2.684584608856	0
3	15	3.861383534989	0
3	20	5.01334414379	0
3	25	7.343566931916	0
3	30	7.685390868202	0
3	35	9.281295512628	0
3	44	10.564952574611	0
3	47	10.736414748793	2
3	50	10.907876922975	2
3	55	11.126218404551	0
3	60	13.150994128834	0
3	65	13.454207485301	0
3	70	14.419764406487	0
3	75	15.288480927983	0
3	80	15.734726830419	0
3	85	17.486057806871	0
3	90	18.518646796315	0
3	97	19.135514526082	0
3	100	19.306976700264	2
3	107	19.71725055797	0
3	110	19.888712732152	2
3	115	21.420253437089	0
3	120	23.395901675743	0
3	129	23.596513999835	0
3	134	23.767976174017	2
3	137	23.939438348199	2
3	140	24.110900522381	2
3	145	25.933506860265	0
3	150	26.678206347308	0
3	156	28.412703151458	0
3	161	28.820562280738	0
3	166	30.071877886837	0
3	171	31.492397413556	0
3	178	32.298350110392	0
3	181	32.469812284574	2
3	186	34.000793120734	0
3	191	35.064039937555	0
3	196	35.348737178769	0
3	201	35.891455760824	0
3	206	36.668996057507	0
3	211	36.862934462538	0
3	216	37.204723995224	0
3	221	37.662778957014	0
3	226	39.081503442172	0
3	231	39.389999922858	0
3	236	39.593278408422	0
3	241	41.124804646493	0
3	248	41.920571137167	0
3	251	42.092033311349	2
3	256	42.310578289638	0
3	261	43.153570228133	0
3	266	43.919879146077	0
3	273	44.949422544055	0
3	276	45.120884718237	2
3	281	45.862533011392	0
3	290	46.452692287524	0
3	293	46.624154461706	2
3	298	46.795616635888	2
3	301	46.96707881007	2
3	309	47.430659428685	2
3	314	47.602121602867	2
3	317	47.773583777049	2
3	324	48.31246862951	0
3	327	48.483930803692	2
3	332	50.148946318958	0
3	337	51.294391984501	0
3	342	51.466246192717	0
3	347	51.681246546472	0
3	352	53.007624712583	0
3	357	58.287522518361	0
3	362	58.698513978964	0
3	367	60.047614872651	0
3	372	61.511517745688	0
3	379	63.167446552788	0
3	382	63.33890872697	2
3	387	65.165199310168	0
3	392	66.83938811156	0
3	397	67.235431678059	0
3	402	67.412608120807	0
3	407	68.07449571125	0
3	412	68.32398661325	0
3	419	69.105064614347	0
3	422	69.276526788529	2
3	427	71.806979742298	0
3	432	72.383247036238	0
3	437	73.303594471074	0
3	442	73.62307658583	0
3	447	74.1599483283	0
3	452	77.593746872312	0
3	460	78.057327490927	2
3	463	78.228789665109	2
3	468	79.175043999718	0
3	473	79.674845461775	0
3	478	80.748093683584	0
3	483	81.995896862971	0
3	490	82.58848018929	0
3	495	82.759942363472	2
3	498	82.931404537654	2
3	503	84.117372799667	0
3	508	84.69297625398	0
3	513	85.160164962644	0
3	518	85.914483158938	0
3	523	86.944697877062	0
3	528	87.256767062443	0
3	533	88.554287202452	0
3	540	91.446383914133	0
3	543	91.617846088315	2
3	548	93.665413789776	0
3	553	93.84673425408	0
3	558	94.094736960084	0
3	563	95.205436245429	0
3	568	96.546433343497	0
3	573	101.018973963752	0
3	578	101.463976117226	0
3	583	103.065463263414	0
3	588	106.248814789066	0
3	597	109.614342889076	0
3	600	109.785805063258	2
3	605	109.95726723744	2
3	609	110.420847856055	2
3	614	111.215614461405	0
3	619	111.544479745666	0
3	624	113.316250695525	0
3	629	114.065587498205	0
3	634	114.420318050527	0
3	639	114.59983694488	0
3	644	117.105285517278	0
3	649	117.527252428641	0
3	654	117.840395621775	0
3	659	118.319412822459	0
3	664	118.665489298331	0
3	669	119.049933999805	0
3	676	119.379393889364	0
3	679	119.550856063546	2
3	684	120.31345185663	0
[...]
7	2421	475.110459025098	0
7	2426	477.717907363481	0
7	2433	478.606049196184	0
7	2436	478.777511370366	0
7	2441	479.228112790226	0
7	2446	479.725007562987	0
7	2451	481.861503549306	0
7	2456	482.465308921594	0
7	2461	483.332231062669	0
7	2466	483.812398026497	0
7	2471	484.238373664816	0
7	2476	485.050689819941	0
7	2481	485.527984045484	0
7	2486	488.25919435774	0
7	2491	493.097660798844	0
7	2496	493.359537324405	0
7	2501	493.637795782076	0
7	2506	494.077869190597	0
7	2511	498.165612922613	0
7	2518	498.567738585895	0
7	2521	498.739200760077	0
7	2526	499.199499007068	0
7	2531	499.383468839021	0
7	2536	499.723350949044	0
7	2541	500.285349204368	0
7	2546	503.993617338791	0
7	2551	505.224349944565	0
7	2556	506.244524586633	0
7	2561	507.405782496029	0
7	2566	509.278658825321	0
7	2572	511.013257248795	0
7	2577	511.20356745825	0
7	2582	511.501707720143	0
7	2587	512.830804502816	0
7	2594	513.972811071126	0
7	2599	514.144273245308	0
7	2604	514.31573541949	0
7	2607	514.487197593672	0
7	2612	515.029965633025	0
7	2617	515.808577605911	0
7	2624	516.277939292096	0
7	2627	516.449401466278	0
7	2632	517.996542245568	0
7	2637	521.055044129205	0
7	2642	521.71024582667	0
7	2649	522.66733794938	0
7	2656	522.838800123562	0
7	2659	523.010262297744	0
7	2662	523.181724471926	0
7	2667	524.113361923805	0
7	2672	526.040311950618	0
7	2677	528.67315097996	0
7	2682	529.57235040476	0
7	2687	533.094810247098	0
7	2692	533.359148002666	0
7	2697	535.611357851308	0
7	2702	536.02908250274	0
7	2707	536.614523590602	0
7	2714	538.407264648319	0
7	2717	538.578726822501	0
7	2723	539.105785567882	0
7	2730	539.361990651157	0
7	2733	539.533452825339	0
7	2738	540.292003380706	0
7	2743	542.875939991225	0
7	2748	543.153242657837	0
7	2753	544.839259003467	0
7	2758	545.182546954118	0
7	2765	546.311515195	0
7	2768	546.482977369182	0
7	2773	547.336677685571	0
7	2780	548.19356643786	0
7	2785	548.365028612042	0
7	2790	548.536490786224	0
7	2793	548.707952960406	0
7	2800	549.614618540498	0
7	2803	549.78608071468	0
7	2808	550.710044957896	0
7	2813	551.227438371781	0
7	2818	553.947709012141	0
7	2823	555.434018146147	0
7	2828	556.823464471802	0
7	2835	557.259862322112	0
7	2842	557.431324496294	0
7	2845	557.602786670476	0
7	2848	557.774248844658	0
7	2855	560.240237172144	0
7	2858	560.411699346326	0
7	2865	564.639467299024	0
7	2868	564.810929473206	0
7	2874	565.274510091821	0
7	2879	568.270122276424	0
7	2884	569.400813641149	0
7	2889	569.986732030582	0
7	2894	570.20594389989	0
7	2899	570.554333462406	0
7	2904	570.736374754039	0
7	2909	571.015258318838	0
7	2914	571.780045267873	0
7	2919	572.899430436437	0
7	2924	573.611870530635	0
7	2929	574.314488868908	0
7	2934	574.592237668523	0
7	2939	575.375951546949	0
7	2944	576.363771498854	0
7	2949	577.735690129737	0
7	2954	578.392695909887	0
7	2959	578.650503423641	0
7	2964	581.70006975474	0
7	2969	582.117650709559	0
7	2974	582.78235614735	0
7	2979	585.318976278622	0
7	2984	585.867642492594	0
7	2989	586.058119277594	0
7	2994	586.935094510827	0
7	3001	588.262366149481	0
7	3004	588.433828323663	0
7	3011	589.633234630216	0
7	3014	589.804696804398	0
7	3019	590.213998697933	0
7	3027	591.205739963013	0
7	3030	591.377202137195	0
7	3035	591.977430178668	0
7	3040	592.406839550524	0
7	3047	594.104958581082	0
7	3050	594.276420755264	0
7	3055	594.725836366033	0
7	3060	596.072669381105	0
7	3065	598.391305420559	0
7	3074	599.683771584827	0
7	3077	599.855233759009	0
7	3080	600.026695933191	0
7	3087	600.637991019153	0
7	3090	600.809453193335	0
7	3095	601.252397916975	0
7	3100	601.479629899689	0
7	3105	601.714553751946	0
7	3110	603.406905142092	0
7	3115	603.851791809209	0
7	3120	604.809279053586	0
7	3125	605.079491887332	0
7	3130	605.287196344793	0
7	3135	605.5440716054	0
7	3140	605.895682682248	0
7	3145	606.104703457776	0
7	3152	606.28064536418	0
7	3155	606.452107538362	0
7	3160	607.029910244017	0
7	3165	607.238927364008	0
7	3170	610.916056646309	0
7	3176	612.172050295238	0
7	3181	614.177809025656	0
7	3186	615.331398542481	0
7	3191	617.078171751787	0
7	3196	617.427460548984	0
7	3201	617.864646562243	0
7	3206	618.53290649238	0
7	3211	618.810551381845	0
7	3216	620.758553868337	0
7	3221	621.394326547874	0
7	3226	621.642219620387	0
7	3231	623.536984108962	0
7	3236	624.154133272562	0
7	3241	624.992277268199	0
7	3246	626.365986650926	0
7	3255	627.645620373405	0
7	3258	627.817082547587	0
7	3261	627.988544721769	0
7	3266	629.498600960874	0
7	3271	630.001941700236	0
7	3276	631.053847129127	0
7	3281	633.330904818035	0
7	3286	634.337937516347	0
7	3291	635.069470825574	0
7	3296	635.689853481865	0
7	3301	637.231542169389	0
7	3306	638.161381247487	0
7	3313	639.244834378123	0
7	3316	639.416296552305	0
7	3321	641.233632325438	0
7	3327	641.697212944053	0
7	3332	642.565277308129	0
7	3337	643.290393958616	0
7	3342	646.359478010081	0
7	3349	649.447612371653	0
7	3352	649.619074545835	0
7	3357	650.647708407473	0
7	3362	651.031958000979	0
7	3367	651.317896576339	0
7	3372	651.608283113191	0
7	3377	653.225633950931	0
7	3382	654.609373117951	0
7	3387	654.784135131414	0
7	3392	655.068316421874	0
7	3399	659.590332298195	0
7	3402	659.761794472377	0
7	3409	661.796724523237	0
7	3412	661.968186697419	0
7	3417	663.355083549973	0
7	3422	667.542991551344	0
7	3427	667.89709514157	0
7	3432	668.428466135331	0
7	3437	671.802006500272	0
7	3442	672.706323530323	0
7	3449	673.308631513068	0
7	3452	673.48009368725	0
7	3457	673.852523491628	0
7	3462	674.099946450929	0
7	3467	674.418773058645	0
7	3472	678.695748845656	0
7	3478	679.485215074286	0
7	3485	680.073631852872	0
7	3488	680.245094027054	0
7	3493	680.716075991839	0
7	3502	681.567736211396	0
7	3505	681.739198385578	0
7	3508	681.91066055976	0
7	3513	683.623263122945	0
7	3518	683.911402913552	0
7	3523	684.411004787891	0
7	3528	685.169158744017	0
7	3533	685.522448429427	0
7	3538	688.100198058547	0
7	3545	688.428964342437	0
7	3550	688.600426516619	0
7	3555	688.771888690801	0
7	3558	688.943350864983	0
7	3563	689.842158140848	0
7	3568	690.704651501922	0
7	3573	691.648096179653	0
7	3578	691.828011223202	0
7	3583	693.14148992976	0
7	3588	696.657183178517	0
7	3593	697.335906961273	0
7	3598	698.575671653074	0
7	3603	699.192672146421	0
7	3608	700.648818684384	0
7	3613	706.872258939145	0
7	3622	707.261352559624	0
7	3627	707.432814733806	0
7	3631	707.896395352421	0
7	3634	708.067857526603	0
7	3639	709.937974912982	0
7	3644	710.829228356012	0
7	3649	712.002729105193	0
7	3654	712.574920519053	0
7	3661	713.330825169929	0
7	3666	713.502287344111	0
7	3669	713.673749518293	0
7	3674	717.478504384676	0
7	3679	717.882889400894	0
7	3684	718.211932478327	0
7	3689	718.653120399469	0
7	3694	718.898463777117	0
7	3699	719.549631659682	0
7	3704	721.599736167744	0
7	3711	723.367968982921	0
7	3714	723.539431157103	0
7	3719	724.844295355439	0
7	3724	725.127390334976	0
7	3731	725.942476680343	0
7	3736	726.113938854525	0
7	3739	726.285401028707	0
7	3744	726.731260421792	0
7	3749	727.410713625991	0
7	3754	728.26102379462	0
7	3759	729.976262705006	0
7	3764	730.250262935085	0
7	3771	730.647871574017	0
7	3774	730.819333748199	0
7	3780	731.593949137255	0
7	3785	735.311120905271	0
7	3790	735.810278789781	0
7	3795	737.985939690572	0
7	3800	738.371707675349	0
7	3805	739.085686987056	0
7	3812	739.323615017062	0
7	3817	739.495077191244	0
7	3820	739.666539365426	0
7	3825	741.260467984862	0
7	3830	742.550187991954	0
7	3835	743.267982279158	0
7	3842	743.533660784563	0
7	3845	743.705122958745	0
7	3850	747.661718974826	0
7	3855	748.389567889855	0
7	3860	749.958383706336	0
7	3865	750.520336477977	0
7	3870	755.034662444676	0
7	3875	756.441610523675	0
7	3880	759.128087841669	0
7	3885	760.598657554926	0
7	3890	762.014257991616	0
7	3895	765.433993741327	0
7	3900	769.60390469316	0
7	3905	769.897578158234	0
7	3910	771.10517889865	0
7	3915	771.524665110135	0
7	3920	772.06524730829	0
7	3925	772.472379612144	0
7	3931	773.51100730413	0
7	3936	774.834210740457	0
7	3941	776.330233310842	0
7	3946	779.273280092496	0
7	3951	779.941652148781	0
7	3956	780.786816183895	0
7	3961	783.99477269466	0
7	3966	785.44906414396	0
7	3971	788.262997879838	0
7	3976	789.259337644483	0
7	3981	790.285476477728	0
7	3986	791.977966168497	0
7	3991	792.333865817992	0
7	3996	793.549223086093	0
7	4001	794.986969934749	0
7	4006	795.535143310858	0
7	4011	797.441528348186	0
7	4016	798.25952510572	0
7	4023	799.05084529915	0
7	4026	799.222307473332	0
7	4031	799.66233840918	0
7	4036	803.287478537359	0
7	4041	804.00778768216	0
7	4046	804.294636064678	0
7	4051	804.761590275794	0
7	4056	805.154730157283	0
7	4061	805.542703988514	0
7	4066	806.016681825149	0
7	4071	806.373782923392	0
7	4076	808.740739752802	0
7	4082	811.407184604534	0
7	4089	812.000943822304	0
7	4092	812.172405996486	0
7	4097	812.365610022381	0
7	4102	814.331477481153	0
7	4111	814.559310308911	0
7	4114	814.730772483093	0
7	4117	814.902234657275	0
7	4122	816.5292177394	0
7	4127	817.869793011065	0
7	4132	820.266670313159	0
7	4137	820.720138778696	0
7	4144	821.417684206326	0
7	4147	821.589146380508	0
7	4154	822.402755618913	0
7	4157	822.574217793095	0
7	4162	823.216058442349	0
7	4167	823.693147525067	0
7	4172	825.025325426908	0
7	4177	825.840942573653	0
7	4184	826.384679233387	0
7	4187	826.556141407569	0
7	4196	827.256513003539	0
7	4199	827.427975177721	0
7	4204	827.599437351903	0
7	4207	827.770899526085	0
7	4212	830.011877718425	0
7	4219	831.010412529641	0
7	4222	831.181874703823	0
7	4227	832.23208801464	0
7	4233	833.387102386534	0
7	4238	833.860397093111	0
7	4243	834.144291200166	0
7	4248	834.964112842358	0
7	4253	835.727706282158	0
7	4260	838.658826924583	0
7	4263	838.830289098765	0
7	4268	840.854089812315	0
7	4275	841.623138740411	0
7	4278	841.794600914593	0
7	4285	843.243482519488	0
7	4288	843.41494469367	0
7	4293	845.191651606221	0
7	4302	845.644839643436	0
7	4305	845.816301817618	0
7	4308	845.9877639918	0
7	4313	847.196433241287	0
7	4320	848.567797021967	0
7	4323	848.739259196149	0
7	4328	849.024142876265	0
7	4333	849.868632812879	0
7	4338	850.21418428082	0
7	4343	851.589915929266	0
7	4348	854.971708924302	0
7	4353	856.076234067829	0
7	4360	858.269579770958	0
7	4363	858.44104194514	0
7	4368	858.915180796435	0
7	4373	859.891513416986	0
7	4378	862.781639905307	0
7	4384	863.724237338512	0
7	4389	864.294124778156	0
7	4394	866.411281847006	0
7	4399	866.900370031576	0
7	4404	869.003255370954	0
7	4409	869.532420012567	0
7	4414	871.262359799988	0
7	4419	872.541632383508	0
7	4424	872.732461713612	0
7	4429	873.756512698112	0
7	4434	875.787512286971	0
7	4439	876.305603742753	0
7	4444	877.076141116851	0
7	4449	878.949294667603	0
7	4454	880.460514867179	0
7	4461	884.72571938373	0
7	4464	884.897181557912	0
7	4469	885.878719752968	0
7	4474	886.443747680113	0
7	4479	887.839949735697	0
7	4484	888.468826108572	0
7	4489	889.718538076866	0
7	4494	891.189121679333	0
7	4499	894.839101238015	0
7	4504	896.004159581472	0
7	4509	896.740158526585	0
7	4514	897.699058484731	0
7	4519	903.041527088536	0
7	4524	904.397753340719	0
7	4529	904.7321358865	0
7	4535	906.095024961027	0
7	4540	906.43531960293	0
7	4545	907.474796977018	0
7	4552	907.734497996146	0
7	4555	907.905960170328	0
7	4560	910.779865649213	0
7	4565	911.807620249078	0
7	4570	912.004474218615	0
7	4575	913.004904591415	0
7	4580	914.752407523473	0
7	4585	915.435463767409	0
7	4592	915.751091598076	0
7	4595	915.922553772258	0
7	4600	916.423811290678	0
7	4607	916.927748424567	0
7	4610	917.099210598749	0
7	4615	917.356231474805	0
7	4620	920.139972371033	0
7	4625	923.857484236898	0
7	4630	926.185318813037	0
7	4635	926.36034153052	0
7	4640	927.233954724258	0
7	4645	927.864672380184	0
7	4650	928.076636933654	0
7	4655	929.898435552375	0
7	4660	930.359470110468	0
7	4665	930.787890993831	0
7	4670	931.312815281169	0
7	4675	933.947555493717	0
7	4680	935.465919201556	0
7	4686	937.754765704196	0
7	4693	938.352772485414	0
7	4696	938.524234659596	0
7	4701	939.889222896257	0
7	4708	941.490423281113	0
7	4711	941.661885455295	0
7	4716	941.848308988449	0
7	4721	942.848771136212	0
7	4726	943.320219776579	0
7	4731	944.020052108442	0
7	4736	944.718735190749	0
7	4741	945.379580121536	0
7	4748	946.217606074617	0
7	4751	946.389068248799	0
7	4756	946.617412158859	0
7	4761	947.597476251278	0
7	4766	948.118900963278	0
7	4771	948.585144079664	0
7	4776	948.923721564801	0
7	4783	949.473554111011	0
7	4786	949.645016285193	0
7	4791	952.898196866506	0
7	4796	954.324206908989	0
7	4801	955.096077999855	0
7	4806	955.330910102387	0
7	4811	955.999892855275	0
7	4818	956.215651619973	0
7	4823	956.387113794155	0
7	4826	956.558575968337	0
7	4831	957.034303213059	0
7	4837	959.087487470729	0
7	4842	960.02353335815	0
7	4847	961.913911245484	0
7	4852	963.353640466734	0
7	4857	964.289174416349	0
7	4862	965.815541926209	0
7	4869	967.098883477053	0
7	4872	967.270345651235	0
7	4879	969.843140107855	0
7	4882	970.014602282037	0
7	4887	970.808661754472	0
7	4892	971.578165055423	0
7	4897	972.107272301337	0
7	4902	974.478487328658	0
7	4907	976.329237339855	0
7	4912	976.915432301643	0
7	4917	980.478338953426	0
7	4926	981.715595041259	0
7	4929	981.887057215441	0
7	4932	982.058519389623	0
7	4937	983.407994211888	0
7	4944	984.469583136786	0
7	4947	984.641045310968	0
7	4952	986.789258236825	0
7	4957	987.771740996918	0
7	4962	990.716412266297	0
7	4967	991.901044214726	0
7	4972	992.160106387124	0
7	4977	997.517640068994	0
7	4982	998.208101355734	0
7	4988	998.950624387649	0
7	4993	999.704125590354	0
8	43	10.564952574611	0.101877486497
8	46	10.736414748793	0.19992925709
8	96	19.135514526082	0.169127765829
8	106	19.71725055797	0.128601142568
8	128	23.596513999835	0.063237583849
8	133	23.767976174017	0.215325757036
8	136	23.939438348199	0.197121947204
8	177	32.298350110392	0.120505881093
8	247	41.920571137167	0.055192125634
8	272	44.949422544055	0.102311836014
8	289	46.452692287524	0.160555758224
8	292	46.624154461706	0.283716830896
8	297	46.795616635888	0.085737740353
8	304	47.259197254503	0.253684609888
8	308	47.430659428685	0.124796864411
8	313	47.602121602867	0.164779825927
8	323	48.31246862951	0.078871455422
8	378	63.167446552788	0.03442652993
8	418	69.105064614347	0.081948814536
8	455	77.885865316745	0.094070311221
8	459	78.057327490927	0.024811945007
8	489	82.58848018929	0.10717372783
8	494	82.759942363472	0.116564699661
8	539	91.446383914133	0.121532010154
8	596	109.614342889076	0.129051210068
8	599	109.785805063258	0.188833946368
8	606	110.249385681873	0.450343367508
8	675	119.379393889364	0.085644674432
8	742	130.170402439731	0.039261897788
8	747	130.341864613913	0.197534417842
8	750	130.513326788095	0.223242386437
8	927	173.655080559597	0.021063881567
8	977	186.478886728726	0.074415293087
8	982	186.650348902908	0.065295146493
8	1002	189.385491287858	0.135947247509
8	1012	190.221308482693	0.096072090589
8	1047	196.041800289935	0.048704687299
8	1052	196.213262464117	0.123381196077
8	1093	212.711736270808	0.033265180552
8	1098	212.88319844499	0.053210399822
8	1103	213.054660619172	0.134286995696
8	1108	213.226122793354	0.027848185663
8	1113	213.397584967536	0.001428289507
8	1203	229.094516107882	0.034342881526
8	1254	239.875899960378	0.129009278453
8	1279	245.432667806958	0.05866527599
8	1299	250.947894805444	0.052824039837
8	1309	251.300602683446	0.000104289046
8	1319	252.481021233593	0.144980648552
8	1349	262.460164055748	0.117224002696
8	1363	263.544251886718	0.432610652361
8	1365	263.7157140609	0.200576825028
8	1370	263.887176235082	0.022454105888
8	1380	265.29083269907	0.021680913232
8	1405	266.922913780402	0.040483824349
8	1430	272.322770114808	0.1369576033
8	1455	276.268368112897	0.023745869651
8	1480	282.203377675683	0.055928662072
8	1521	293.689343415242	0.082985391641
8	1546	296.642104055626	0.129400205724
8	1561	298.817208989211	0.140118357222
8	1606	308.042361760099	0.14127008783
8	1626	312.573308141597	0.073492365199
8	1656	315.577088825168	0.07868644915
8	1663	316.040669443783	0.276154895329
8	1677	318.245417534831	0.035785795257
8	1742	333.387334317998	0.005135213008
8	1777	341.917635245665	0.007317598967
8	1802	345.545310845852	0.058454947561
8	1816	346.19672165311	0.276337485128
8	1818	346.368183827292	0.305120135179
8	1858	361.710425782069	0.078957214522
8	1865	361.881887956251	0.123616083694
8	1868	362.053350130433	0.291842520335
8	1965	383.615147790964	0.415121211222
8	2004	389.860056450334	0.00536663289
8	2029	395.769011018156	0.102525307723
8	2074	402.233456193568	0.084328557782
8	2109	412.120668196214	0.130945136169
8	2118	412.584248814829	0.436833943331
8	2120	412.755710989011	0.257239662868
8	2130	413.638773737802	0.069431691243
8	2245	443.199789721884	0.052694754807
8	2356	466.861634175215	0.067928527244
8	2398	471.73971465809	0.111487846196
8	2401	471.911176832272	0.262026188751
8	2432	478.606049196184	0.042624009386
8	2517	498.567738585895	0.008202730572
8	2593	513.972811071126	0.101961847564
8	2598	514.144273245308	0.108952353002
8	2603	514.31573541949	0.016667896914
8	2623	516.277939292096	0.107465426225
8	2648	522.66733794938	0.030633528269
8	2655	522.838800123562	0.163783783794
8	2658	523.010262297744	0.175235191564
8	2713	538.407264648319	0.060165097025
8	2729	539.361990651157	0.166877611128
8	2764	546.311515195	0.146231532616
8	2779	548.19356643786	0.120749831493
8	2784	548.365028612042	0.080707281126
8	2789	548.536490786224	0.110004161456
8	2799	549.614618540498	0.121305969512
8	2834	557.259862322112	0.1687536
8	2841	557.431324496294	0.044974991323
8	2844	557.602786670476	0.172831665043
8	2854	560.240237172144	0.148762770472
8	2864	564.639467299024	0.16640211517
8	2871	565.103047917639	0.027469720791
8	3000	588.262366149481	0.088447402267
8	3010	589.633234630216	0.071526393805
8	3026	591.205739963013	0.050877397084
8	3046	594.104958581082	0.095670139041
8	3073	599.683771584827	0.072059864956
8	3076	599.855233759009	0.212287218793
8	3086	600.637991019153	0.105658288861
8	3151	606.28064536418	0.146201667974
8	3254	627.645620373405	0.114234094247
8	3257	627.817082547587	0.22256864671
8	3312	639.244834378123	0.039170335094
8	3324	641.525750769871	0.086957745281
8	3348	649.447612371653	0.005662302527
8	3398	659.590332298195	0.138948295532
8	3408	661.796724523237	0.043443190193
8	3448	673.308631513068	0.103940778503
8	3484	680.073631852872	0.122552461642
8	3501	681.567736211396	0.098044835157
8	3504	681.739198385578	0.204981496582
8	3544	688.428964342437	0.129776127471
8	3549	688.600426516619	0.121323419485
8	3554	688.771888690801	0.03999653945
8	3621	707.261352559624	0.149704307771
8	3628	707.724933178239	0.570530351438
8	3630	707.896395352421	0.56683090967
8	3660	713.330825169929	0.161455657262
8	3665	713.502287344111	0.149103218339
8	3710	723.367968982921	0.123547250716
8	3730	725.942476680343	0.026993347743
8	3735	726.113938854525	0.038440167387
8	3770	730.647871574017	0.03336344837
8	3811	739.323615017062	0.129702488375
8	3816	739.495077191244	0.092278537378
8	3841	743.533660784563	0.107364940227
8	4022	799.05084529915	0.098244392324
8	4088	812.000943822304	0.139279440646
8	4110	814.559310308911	0.160464822704
8	4113	814.730772483093	0.255461258269
8	4143	821.417684206326	0.039825834776
8	4153	822.402755618913	0.152082986776
8	4183	826.384679233387	0.113860891268
8	4195	827.256513003539	0.089219930593
8	4198	827.427975177721	0.207419973602
8	4203	827.599437351903	0.074074912255
8	4218	831.010412529641	0.132259955285
8	4259	838.658826924583	0.081170878299
8	4274	841.623138740411	0.143357021177
8	4284	843.243482519488	0.045136037725
8	4301	845.644839643436	0.147958364645
8	4304	845.816301817618	0.303593739306
8	4319	848.567797021967	0.004806667318
8	4359	858.269579770958	0.021201392524
8	4460	884.72571938373	0.001556965527
8	4551	907.734497996146	0.13567532141
8	4591	915.751091598076	0.147142889448
8	4606	916.927748424567	0.084195117055
8	4692	938.352772485414	0.004604262774
8	4707	941.490423281113	0.149747550576
8	4747	946.217606074617	0.160402036022
8	4782	949.473554111011	0.105588085424
8	4817	956.215651619973	0.09894718283
8	4822	956.387113794155	0.14795130871
8	4868	967.098883477053	0.116073327647
8	4878	969.843140107855	0.144840327711
8	4925	981.715595041259	0.148905328297
8	4928	981.887057215441	0.259448473868
8	4943	984.469583136786	0.119670497261

