version 2
run General-146-20240201-11:04:20-40057
attr configname General
attr datetime 20240201-11:04:20
attr experiment General
attr inifile main.ini
attr iterationvars "$0=1.4, $1=1.7, $2=50"
attr iterationvarsf 1.4,1.7,50-
attr measurement "$0=1.4, $1=1.7, $2=50"
attr network Rete
attr processid 40057
attr repetition 6
attr replication #6
attr resultdir results
attr runnumber 146
attr seedset 146
param Rete.lambda 1.4
param Rete.a 0.3s
param Rete.b 1.7s
param Rete.c 0.1s
param Rete.d 0.3s
param Rete.mu 3.0
param Rete.source2.interArrivalTime exponential(1s/lambda)
param Rete.source2.jobServiceTime exponential(1s/mu)
param Rete.source2.deadline uniform(a,b)
param Rete.server2.j 50
param Rete.server2.V uniform(c,d)

vector 0 Rete.passiveQueue queueLength:vector ETV
attr interpolationmode sample-hold
attr title "queue length, vector"
vector 1 Rete.passiveQueue queueingTime:vector ETV
attr interpolationmode none
attr title "queueing time at dequeue, vector"
attr unit s
vector 2 Rete.sink lifeTime:vector ETV
attr interpolationmode none
attr title "lifetime of arrived jobs, vector"
attr unit s
vector 3 Rete.sink totalQueueingTime:vector ETV
attr interpolationmode none
attr title "the total time spent in queues by arrived jobs, vector"
attr unit s
vector 4 Rete.sink queuesVisited:vector ETV
attr interpolationmode none
attr title "the total number of queues visited by arrived jobs, vector"
vector 5 Rete.sink totalServiceTime:vector ETV
attr interpolationmode none
attr title "the total time spent  by arrived jobs, vector"
attr unit s
vector 6 Rete.sink totalDelayTime:vector ETV
attr interpolationmode none
attr title "the total time spent in delay nodes by arrived jobs, vector"
attr unit s
vector 7 Rete.sink delaysVisited:vector ETV
attr interpolationmode none
attr title "the total number of delays visited by arrived jobs, vector"
vector 8 Rete.sink generation:vector ETV
attr interpolationmode none
attr title "the generation of the arrived jobs, vector"
0	0	0	0
0	5	0.74699420494	1
0	6	0.813979998413	0
0	15	1.736699548467	1
0	16	1.84251632848	0
0	25	2.596377734488	1
0	26	2.627771646025	0
0	50	7.496410903099	1
0	52	7.500956654553	2
0	53	7.748683280036	1
0	56	8.070253861467	0
0	95	14.045235654294	1
0	96	14.137395876535	0
0	110	18.03372011232	1
0	111	18.269807579208	0
0	115	18.429891796296	1
0	116	18.591378160639	0
0	135	21.993613397598	1
0	136	22.083253717144	0
0	140	22.09140343092	1
0	141	22.404824298575	0
0	155	23.723284434538	1
0	156	23.937748196857	0
0	170	25.332045025449	1
0	171	25.502686158244	0
0	175	25.643311208792	1
0	177	25.716990893249	2
0	178	25.824256739675	1
0	181	26.145827321106	0
0	190	26.806140770325	1
0	191	26.939035827054	0
0	230	32.264163116179	1
0	232	32.297258827289	2
0	233	32.505497297769	1
0	236	32.8270678792	0
0	261	36.460357790289	1
0	262	36.496967019701	0
0	266	36.668622645704	1
0	268	36.674509322964	2
0	269	36.818537601132	1
0	272	37.140108182563	0
0	276	37.370153540155	1
0	277	37.461678763994	0
0	301	44.407287895121	1
0	302	44.583755346404	0
0	316	48.801190511446	1
0	317	48.839735666871	0
0	366	58.889823372479	1
0	368	59.1092723956	2
0	369	59.130289805424	1
0	373	59.139076265762	2
0	374	59.451860386855	1
0	377	59.773430968286	0
0	391	61.967385720485	1
0	392	62.086207377869	0
0	456	75.411892952695	1
0	457	75.478789813562	0
0	481	79.633851730904	1
0	483	79.904662678492	2
0	484	79.930730043468	1
0	488	79.955669916023	2
0	489	80.252300624899	1
0	492	80.57387120633	0
0	496	80.61317537686	1
0	498	80.634064552707	2
0	499	80.895441787761	1
0	504	81.460223197403	0
0	537	86.952726172381	1
0	538	87.026069318067	0
0	542	87.059862934395	1
0	544	87.200010593579	2
0	545	87.347639899498	1
0	549	87.551501398169	2
0	550	87.669210480929	1
0	553	87.99078106236	0
0	562	89.351641532722	1
0	563	89.534766948882	0
0	572	92.494169108868	1
0	573	92.515986826042	0
0	597	96.599797132768	1
0	598	96.682752047472	0
0	602	96.84777941082	1
0	603	97.004322628903	0
0	612	97.524506213775	1
0	613	97.791220573107	0
0	667	108.024171171812	1
0	668	108.114755883516	0
0	687	111.310027351079	1
0	688	111.340312922173	0
0	722	115.658804360724	1
0	723	115.878989653776	0
0	727	115.997659953408	1
0	728	116.200560235207	0
0	747	119.31791702376	1
0	748	119.346773575395	0
0	752	119.556042183655	1
0	755	119.911554985037	0
0	768	121.157417519467	1
0	770	121.245922495388	2
0	772	121.313061099668	3
0	773	121.423343537267	2
0	776	121.744914118698	1
0	779	122.066484700129	0
0	783	122.103972680321	1
0	784	122.38805528156	0
0	788	122.667504690148	1
0	789	122.709625862991	0
0	818	131.627909598714	1
0	819	131.929224627826	0
0	823	132.241823259953	1
0	824	132.250795209257	0
0	858	140.379601970015	1
0	860	140.410527190808	2
0	861	140.499159848605	1
0	864	140.820730430036	0
0	883	145.846418307397	1
0	884	145.898037719377	0
0	893	147.102313504256	1
0	894	147.195177458894	0
0	903	148.70697014216	1
0	904	148.721362933921	0
0	908	148.948454878838	1
0	910	149.036336407449	2
0	911	149.042933515352	1
0	915	149.122257369297	2
0	916	149.364504096783	1
0	919	149.686074678214	0
0	938	151.495791862548	1
0	939	151.641045981451	0
0	943	151.695398077322	1
0	945	151.79181391224	2
0	946	151.962616562882	1
0	949	152.284187144313	0
0	953	152.600777682748	1
0	954	152.605757725744	0
0	958	152.740692361348	1
0	960	152.784405553702	2
0	961	152.927328307175	1
0	964	153.248898888606	0
0	968	153.543291098052	1
0	969	153.570469470037	0
0	973	153.835751762256	1
0	974	153.892040051468	0
0	988	155.91065586813	1
0	989	155.976920652854	0
0	1003	157.171484186003	1
0	1006	157.476856353215	0
0	1029	159.946440174675	1
0	1030	160.245045240866	0
0	1039	161.487722412529	1
0	1040	161.497892929096	0
0	1049	162.930050924837	1
0	1050	163.234292341582	0
0	1054	163.345597944865	1
0	1055	163.555862923013	0
0	1064	164.527526829891	1
0	1065	164.545041422162	0
0	1069	164.685717344301	1
0	1070	164.866612003593	0
0	1074	164.959578891445	1
0	1075	165.188182585024	0
0	1079	165.243938259158	1
0	1081	165.360717512655	2
0	1082	165.509753166455	1
0	1085	165.831323747886	0
0	1094	166.431344331243	1
0	1096	166.561715879959	2
0	1097	166.647376775844	1
0	1101	166.705853168014	2
0	1102	166.968947357275	1
0	1105	167.290517938706	0
0	1109	167.338757303485	1
0	1110	167.612088520137	0
0	1119	168.817806119489	1
0	1120	169.116609834365	0
0	1139	171.955659439456	1
0	1140	172.210236306621	0
0	1169	179.325064600577	1
0	1170	179.430181540855	0
0	1184	181.018727551132	1
0	1185	181.303236180059	0
0	1189	181.412010166177	1
0	1191	181.526876821219	2
0	1192	181.62480676149	1
0	1195	181.946377342921	0
0	1214	184.345542912411	1
0	1215	184.568158642036	0
0	1219	184.889237162213	1
0	1220	184.889729223467	0
0	1249	190.105010699641	1
0	1250	190.197554859156	0
0	1280	198.67804030708	1
0	1281	198.752083506564	0
0	1290	199.224886191005	1
0	1291	199.458136664331	0
0	1295	199.596782608555	1
0	1296	199.779707245762	0
0	1315	202.835015623272	1
0	1316	202.955198670187	0
0	1325	205.269269585578	1
0	1326	205.513936353285	0
0	1335	211.452373132882	1
0	1336	211.644830734559	0
0	1360	216.098893247009	1
0	1361	216.189664670268	0
0	1365	216.264922469851	1
0	1366	216.511235251699	0
0	1375	218.366849415604	1
0	1377	218.40183406003	2
0	1378	218.407878147903	1
0	1381	218.729448729334	0
0	1395	221.348685701035	1
0	1396	221.534646165924	0
0	1400	221.694027702055	1
0	1401	221.856216747355	0
0	1415	223.627773900893	1
0	1416	223.840098746242	0
0	1445	228.9390428602	1
0	1446	229.143451988243	0
0	1455	231.217907375486	1
0	1456	231.26790412325	0
0	1460	231.286585099568	1
0	1462	231.516468561494	2
0	1463	231.589474704681	1
0	1467	231.787801490051	2
0	1469	231.819722293943	3
0	1470	231.911045286112	2
0	1474	232.226369482685	3
0	1475	232.232615867543	2
0	1478	232.554186448974	1
0	1482	232.569639622983	2
0	1483	232.875757030405	1
0	1486	233.197327611836	0
0	1490	233.221068886878	1
0	1492	233.354811524645	2
0	1493	233.518898193267	1
0	1496	233.840468774698	0
0	1536	240.300595996987	1
0	1537	240.520957126594	0
0	1541	240.642304538143	1
0	1543	240.780217417927	2
0	1544	240.842527708025	1
0	1547	241.164098289456	0
0	1551	241.220883061182	1
0	1552	241.485668870887	0
0	1566	245.868746112255	1
0	1567	245.941088781344	0
0	1571	246.096672612508	1
0	1573	246.239329710012	2
0	1574	246.262659362775	1
0	1578	246.373992557428	2
0	1579	246.584229944206	1
0	1582	246.905800525637	0
0	1591	247.394827692838	1
0	1592	247.622202419618	0
0	1601	248.343538331238	1
0	1602	248.49049839635	0
0	1621	252.912520177081	1
0	1622	253.045247587449	0
0	1631	254.045573523293	1
0	1633	254.05100462003	2
0	1634	254.350432365192	1
0	1638	254.630043325627	2
0	1639	254.672002946623	1
0	1642	254.993573528054	0
0	1651	256.59302864226	1
0	1653	256.659510245584	2
0	1654	256.68292839891	1
0	1657	257.004498980341	0
0	1661	257.163130113554	1
0	1662	257.326069561772	0
0	1686	261.27265351179	1
0	1687	261.396789795158	0
0	1701	263.719398474261	1
0	1702	263.861142056372	0
0	1726	271.009604482343	1
0	1727	271.078837949198	0
0	1767	279.65026733859	1
0	1768	279.858448474605	0
0	1772	279.945781519995	1
0	1773	280.180019056036	0
0	1782	281.056712478685	1
0	1783	281.077514253827	0
0	1787	281.311390869516	1
0	1788	281.399084835258	0
0	1797	283.923506367138	1
0	1798	284.116718664326	0
0	1812	285.409853756624	1
0	1813	285.580626774697	0
0	1817	285.647040268884	1
0	1818	285.902197356128	0
0	1822	286.125001822245	1
0	1823	286.223767937559	0
0	1832	286.938223724311	1
0	1833	287.094813053474	0
0	1837	287.158699152106	1
0	1838	287.416383634905	0
0	1842	287.447868449485	1
0	1843	287.737954216336	0
0	1847	287.889906780145	1
0	1848	288.059524797767	0
0	1862	291.32318856382	1
0	1864	291.48024776933	2
0	1866	291.489506589962	3
0	1867	291.502016199517	2
0	1870	291.823586780948	1
0	1873	292.145157362379	0
0	1907	299.818771137658	1
0	1908	300.137808224596	0
0	1927	302.236433573655	1
0	1929	302.26641806118	2
0	1931	302.462569601092	3
0	1932	302.555181582928	2
0	1935	302.876752164359	1
0	1939	303.115054288237	2
0	1940	303.19832274579	1
0	1943	303.519893327221	0
0	1952	304.019813339433	1
0	1954	304.140939152289	2
0	1955	304.209210597038	1
0	1958	304.530781178469	0
0	1962	304.587736903895	1
0	1963	304.8523517599	0
0	1972	308.21588751666	1
0	1973	308.225700191582	0
0	1982	308.815728630119	1
0	1983	308.94714863336	0
0	1997	310.126861400919	1
0	1998	310.419195388547	0
0	2028	313.344902554616	1
0	2029	313.63357807277	0
0	2063	318.38499769084	1
0	2065	318.664912632492	2
0	2066	318.69639735625	1
0	2069	319.017967937681	0
0	2103	325.822768761935	1
0	2104	325.834987507726	0
0	2138	334.109192969994	1
0	2140	334.155312908289	2
0	2141	334.380493292449	1
0	2145	334.666151481511	2
0	2146	334.70206387388	1
0	2149	335.023634455311	0
0	2158	335.738256729609	1
0	2159	336.051776297357	0
0	2178	339.819231327605	1
0	2179	339.988403899129	0
0	2183	340.03256598801	1
0	2184	340.30997448056	0
0	2188	340.372925296452	1
0	2189	340.631545061991	0
0	2193	340.842528867105	1
0	2194	340.953115643422	0
0	2203	341.684017075518	1
0	2205	341.772646382488	2
0	2206	341.784582905813	1
0	2209	342.106153487244	0
0	2223	343.155524513169	1
0	2224	343.283558801531	0
0	2233	344.040209145155	1
0	2234	344.354332123697	0
0	2264	348.554405913721	1
0	2265	348.573946072982	0
0	2274	349.498843802005	1
0	2276	349.534032833173	2
0	2278	349.676444894635	3
0	2280	349.692241377331	4
0	2281	349.75700991321	3
0	2285	349.897415562257	4
0	2287	349.931013762863	5
0	2288	350.078580494641	4
0	2291	350.400151076072	3
0	2295	350.572935837934	4
0	2297	350.595100183267	5
0	2298	350.721721657503	4
0	2300	350.721721657503	3
0	2302	351.043292238934	2
0	2304	351.043292238934	1
0	2306	351.364862820365	0
0	2325	354.189097132613	1
0	2327	354.249888186096	2
0	2328	354.387611605893	1
0	2331	354.709182187324	0
0	2335	355.027757474745	1
0	2336	355.030752768755	0
0	2340	355.077545092344	1
0	2342	355.317825196492	2
0	2343	355.352323350186	1
0	2347	355.567443043498	2
0	2348	355.673893931617	1
0	2352	355.991164769688	2
0	2353	355.995464513048	1
0	2356	356.317035094479	0
0	2410	365.428802128925	1
0	2411	365.499626485109	0
0	2425	367.629337206668	1
0	2426	367.945089388445	0
0	2430	368.118786935011	1
0	2431	368.266659969876	0
0	2460	372.475311026978	1
0	2461	372.677085765614	0
0	2465	372.686402597146	1
0	2466	372.998656347045	0
0	2480	374.232957871447	1
0	2481	374.547038729527	0
0	2495	375.887702075952	1
0	2497	375.941846385415	2
0	2498	376.029210119355	1
0	2501	376.350780700786	0
0	2526	380.028349852259	1
0	2528	380.299672824356	2
0	2529	380.339371765408	1
0	2533	380.597184161164	2
0	2534	380.660942346839	1
0	2537	380.98251292827	0
0	2541	381.187635949816	1
0	2542	381.304083509701	0
0	2546	381.540574366555	1
0	2548	381.547986552292	2
0	2549	381.625654091132	1
0	2552	381.947224672563	0
0	2556	382.162388375749	1
0	2557	382.268795253994	0
0	2561	382.474132417758	1
0	2562	382.590365835425	0
0	2566	382.679657517314	1
0	2567	382.911936416856	0
0	2571	383.037630299355	1
0	2572	383.233506998287	0
0	2586	385.597208466302	1
0	2587	385.728294442394	0
0	2596	386.592496857614	1
0	2598	386.722625082579	2
0	2599	386.789593415135	1
0	2603	386.906557219372	2
0	2604	387.111163996566	1
0	2607	387.432734577997	0
0	2611	387.54578518936	1
0	2612	387.754305159428	0
0	2621	389.864020468003	1
0	2622	390.028879490202	0
0	2651	397.300105941476	1
0	2652	397.383887853048	0
0	2671	401.738415494983	1
0	2672	401.807722910001	0
0	2716	409.066181762575	1
0	2717	409.152736381303	0
0	2721	409.194347220244	1
0	2722	409.474306962734	0
0	2726	409.570883807424	1
0	2727	409.795877544165	0
0	2736	410.868729391955	1
0	2737	410.889106184748	0
0	2751	412.03816212375	1
0	2753	412.119012221672	2
0	2755	412.278221478169	3
0	2756	412.315273277733	2
0	2760	412.426035808587	3
0	2761	412.636843859164	2
0	2764	412.958414440595	1
0	2768	413.075294850783	2
0	2772	413.298807104877	3
0	2773	413.523195850237	2
0	2774	413.523195850237	1
0	2776	413.844766431668	0
0	2785	414.417159642794	1
0	2786	414.518585909257	0
0	2790	414.537319472736	1
0	2792	414.583168590156	2
0	2793	414.840156490688	1
0	2796	415.161727072119	0
0	2800	415.405565152941	1
0	2801	415.48329765355	0
0	2805	415.584839973278	1
0	2807	415.676120798221	2
0	2808	415.804868234981	1
0	2811	416.126438816412	0
0	2820	416.787525782376	1
0	2821	417.071926592011	0
0	2840	422.591698288856	1
0	2841	422.6589525363	0
0	2845	422.939847694602	1
0	2846	422.980523117731	0
0	2850	423.008540683214	1
0	2851	423.302093699162	0
0	2855	423.360590030692	1
0	2857	423.416849336217	2
0	2858	423.623664280593	1
0	2861	423.945234862024	0
0	2865	424.11627195269	1
0	2866	424.266805443455	0
0	2875	424.953556629919	1
0	2876	424.999999656352	0
0	2885	428.19629583502	1
0	2886	428.272531236756	0
0	2915	432.964318905546	1
0	2916	433.024940348339	0
0	2925	436.585569420578	1
0	2926	436.600490718792	0
0	2950	439.566476327345	1
0	2951	439.69112205921	0
0	2960	444.808556152538	1
0	2961	445.125347485677	0
0	2985	450.869191817505	1
0	2986	451.052037514016	0
0	2990	451.28146656158	1
0	2991	451.373608095447	0
0	2995	451.54354847188	1
0	2997	451.548845632061	2
0	2998	451.695178676878	1
0	3002	451.731188412532	2
0	3004	451.955625615235	3
0	3005	452.016749258309	2
0	3009	452.307763970293	3
0	3010	452.33831983974	2
0	3013	452.659890421171	1
0	3017	452.968958659786	2
0	3018	452.981461002602	1
0	3022	453.111398924674	2
0	3024	453.237828051291	3
0	3027	453.546242412244	2
0	3029	453.867812993675	1
0	3033	454.113668041988	2
0	3035	454.133843421525	3
0	3036	454.189383575106	2
0	3038	454.189383575106	1
0	3041	454.354166427621	2
0	3042	454.510954156537	1
0	3046	454.553188372836	2
0	3047	454.832524737968	1
0	3051	454.925621365703	2
0	3052	455.154095319399	1
0	3055	455.47566590083	0
0	3074	457.988794793624	1
0	3075	458.050844513995	0
0	3084	459.584460341775	1
0	3085	459.61381487199	0
0	3094	462.021717332605	1
0	3095	462.220038258823	0
0	3109	463.851494716012	1
0	3110	463.996789040476	0
0	3119	464.674935506181	1
0	3120	464.804609647605	0
0	3134	466.301222023442	1
0	3135	466.466261405972	0
0	3139	466.64058337818	1
0	3140	466.787831987403	0
0	3144	466.872153795653	1
0	3146	466.907955284675	2
0	3147	467.109402568834	1
0	3151	467.222322882272	2
0	3152	467.430973150265	1
0	3156	467.452037067279	2
0	3158	467.573372996867	3
0	3159	467.752543731696	2
0	3162	468.074114313127	1
0	3165	468.395684894558	0
0	3174	469.560019057185	1
0	3175	469.600403826793	0
0	3179	469.8626451859	1
0	3180	469.921974408224	0
0	3189	470.512271663108	1
0	3190	470.662687086794	0
0	3194	470.874588404195	1
0	3195	470.984257668225	0
0	3204	471.91702649876	1
0	3205	471.92659876597	0
0	3209	471.999017692711	1
0	3211	472.140620137634	2
0	3212	472.248169347401	1
0	3215	472.569739928832	0
0	3224	473.213181310418	1
0	3226	473.301409176332	2
0	3227	473.48336394408	1
0	3231	473.756167783499	2
0	3232	473.804934525511	1
0	3236	473.863979854551	2
0	3238	474.097436831976	3
0	3239	474.126505106942	2
0	3243	474.418602254916	3
0	3244	474.448075688373	2
0	3248	474.624204176613	3
0	3249	474.769646269804	2
0	3252	475.091216851235	1
0	3256	475.250854998952	2
0	3257	475.412787432666	1
0	3260	475.734358014097	0
0	3274	478.210815107357	1
0	3276	478.233348688194	2
0	3279	478.539155638085	1
0	3281	478.860726219516	0
0	3290	479.727219015361	1
0	3291	479.982750362494	0
0	3320	483.732171317495	1
0	3321	483.841536770614	0
0	3360	492.809323449961	1
0	3361	492.832642262602	0
0	3370	493.532024832694	1
0	3371	493.769940177551	0
0	3395	498.467160441785	1
0	3397	498.527851293669	2
0	3398	498.537538965613	1
0	3401	498.859109547044	0
0	3415	501.38106981028	1
0	3416	501.535657611167	0
0	3440	507.006733714644	1
0	3441	507.321764803142	0
0	3445	507.404222435073	1
0	3446	507.643335384573	0
0	3455	508.344946337196	1
0	3457	508.449120092881	2
0	3458	508.528851106891	1
0	3461	508.850421688322	0
0	3495	511.701519048696	1
0	3496	511.969784964627	0
0	3500	512.036683695669	1
0	3501	512.291355546058	0
0	3510	512.682469241687	1
0	3512	512.931477598156	2
0	3513	512.999540942587	1
0	3516	513.321111524018	0
0	3551	520.225912224532	1
0	3552	520.49249810326	0
0	3571	521.834549119497	1
0	3572	522.110324633547	0
0	3586	523.749074292305	1
0	3588	523.915150803376	2
0	3589	523.934307880728	1
0	3593	524.09155481921	2
0	3594	524.255878462159	1
0	3597	524.57744904359	0
0	3611	526.241422533583	1
0	3612	526.39595403587	0
0	3631	528.14916080756	1
0	3632	528.415258847683	0
0	3641	529.286117805464	1
0	3643	529.372417624158	2
0	3644	529.393386741572	1
0	3648	529.543108896945	2
0	3650	529.682168383731	3
0	3651	529.714957323003	2
0	3654	530.036527904434	1
0	3658	530.042688170028	2
0	3659	530.358098485865	1
0	3663	530.379119995455	2
0	3665	530.481008516194	3
0	3666	530.679669067296	2
0	3670	530.922284741936	3
0	3671	531.001239648727	2
0	3674	531.322810230158	1
0	3678	531.385974110929	2
0	3679	531.644380811589	1
0	3682	531.96595139302	0
0	3691	533.139542634829	1
0	3693	533.239981951252	2
0	3694	533.25629708989	1
0	3697	533.577867671321	0
0	3731	541.67229221758	1
0	3732	541.843337595104	0
0	3751	545.522633576709	1
0	3753	545.650923176338	2
0	3754	545.734083129109	1
0	3758	545.778724373704	2
0	3760	546.017602226519	3
0	3761	546.05565371054	2
0	3764	546.377224291971	1
0	3767	546.698794873402	0
0	3782	548.114676138897	1
0	3783	548.185187928652	0
0	3792	548.837922297351	1
0	3793	549.158286695935	0
0	3802	550.478483436057	1
0	3803	550.736719439206	0
0	3812	551.287559095661	1
0	3813	551.463905634263	0
0	3827	553.74051697492	1
0	3828	553.892367990521	0
0	3832	554.174332908373	1
0	3833	554.213938571952	0
0	3877	563.022955892413	1
0	3878	563.032756288168	0
0	3887	563.77588118299	1
0	3888	563.909598930555	0
0	3897	565.358784285989	1
0	3899	565.404094854364	2
0	3901	565.437356462597	3
0	3903	565.565280888614	4
0	3904	565.571240603321	3
0	3908	565.693739887161	4
0	3910	565.721092274978	5
0	3911	565.892811184752	4
0	3915	566.024562380831	5
0	3916	566.214381766183	4
0	3920	566.353490394141	5
0	3922	566.362088287057	6
0	3923	566.535952347614	5
0	3925	566.535952347614	4
0	3928	566.541864360737	5
0	3930	566.63643318944	6
0	3931	566.857522929045	5
0	3933	566.857522929045	4
0	3935	567.179093510476	3
0	3939	567.250985483102	4
0	3940	567.500664091907	3
0	3942	567.500664091907	2
0	3943	567.500664091907	1
0	3946	567.741184263415	2
0	3947	567.822234673338	1
0	3950	568.143805254769	0
0	3999	575.831844453258	1
0	4000	576.044056759442	0
0	4050	587.094450084193	1
0	4051	587.327006128547	0
0	4055	587.584026112339	1
0	4056	587.648576709978	0
0	4060	587.744586136021	1
0	4061	587.970147291409	0
0	4065	588.01760391572	1
0	4066	588.29171787284	0
0	4070	588.54612725288	1
0	4071	588.613288454271	0
0	4090	589.925203852486	1
0	4092	589.940333033936	2
0	4093	590.168421422948	1
0	4096	590.489992004379	0
0	4100	590.568905964316	1
0	4101	590.81156258581	0
0	4130	597.16858403251	1
0	4131	597.208411414537	0
0	4145	598.234119954991	1
0	4146	598.257742950531	0
0	4150	598.472100793994	1
0	4151	598.579313531962	0
0	4155	598.665907976448	1
0	4157	598.778256221459	2
0	4158	598.900884113393	1
0	4161	599.222454694824	0
0	4175	600.845420420708	1
0	4176	601.166729619884	0
0	4190	606.202527416344	1
0	4191	606.376415964686	0
0	4195	606.646531325459	1
0	4196	606.697986546117	0
0	4200	606.892681565669	1
0	4201	607.019557127548	0
0	4215	609.466810500287	1
0	4216	609.626909019361	0
0	4235	611.358333611479	1
0	4236	611.551732984115	0
0	4240	611.75340307982	1
0	4241	611.873303565546	0
0	4245	612.12891222472	1
0	4246	612.194874146977	0
0	4250	612.29589893784	1
0	4252	612.407767186322	2
0	4253	612.516444728408	1
0	4256	612.838015309839	0
0	4270	615.70101540635	1
0	4272	615.753498510581	2
0	4274	615.782429161682	3
0	4275	615.947323059309	2
0	4279	616.031262834384	3
0	4281	616.058352554311	4
0	4282	616.26889364074	3
0	4286	616.357725849296	4
0	4288	616.43175035681	5
0	4289	616.590464222171	4
0	4293	616.676710749874	5
0	4295	616.856459906642	6
0	4296	616.912034803602	5
0	4300	617.1114485593	6
0	4303	617.476816213244	5
0	4304	617.476816213244	4
0	4305	617.476816213244	3
0	4306	617.476816213244	2
0	4309	617.521715081786	3
0	4311	617.661776952776	4
0	4312	617.798386794675	3
0	4315	618.119957376106	2
0	4317	618.119957376106	1
0	4319	618.441527957537	0
0	4323	618.724034941779	1
0	4324	618.763098538968	0
0	4363	624.809679311848	1
0	4364	625.002793125364	0
0	4378	629.13614458446	1
0	4379	629.226431218788	0
0	4383	629.36978934785	1
0	4384	629.548001800219	0
0	4433	639.236862352698	1
0	4435	639.250799340787	2
0	4437	639.314761330916	3
0	4439	639.473044531821	4
0	4440	639.544807986982	3
0	4443	639.866378568413	2
0	4447	639.995315498498	3
0	4448	640.187949149844	2
0	4451	640.509519731275	1
0	4453	640.509519731275	0
0	4466	644.043537555288	1
0	4467	644.299342606656	0
0	4481	645.97800078024	1
0	4482	646.265740256247	0
0	4496	648.471288626354	1
0	4497	648.724783986739	0
0	4506	650.38341256268	1
0	4507	650.527547461214	0
0	4516	652.28601614625	1
0	4517	652.399814325852	0
0	4521	652.576450274238	1
0	4522	652.721384907283	0
0	4526	653.000686250835	1
0	4527	653.042955488714	0
0	4536	654.31453773942	1
0	4537	654.376946123668	0
0	4556	658.039156524187	1
0	4559	658.551741465514	0
0	4562	658.665610928886	1
0	4563	658.873312046945	0
0	4567	658.926400216277	1
0	4568	659.194882628376	0
0	4587	661.410984193427	1
0	4588	661.643532109905	0
0	4612	667.989255744492	1
0	4613	668.202425037752	0
0	4632	672.852519436563	1
0	4634	672.930128556689	2
0	4635	673.126504890398	1
0	4639	673.39218387844	2
0	4640	673.448075471829	1
0	4644	673.463594095022	2
0	4646	673.596575482628	3
0	4647	673.76964605326	2
0	4650	674.091216634691	1
0	4654	674.150213360088	2
0	4655	674.412787216122	1
0	4658	674.734357797553	0
0	4662	674.77690567219	1
0	4663	675.055928378984	0
0	4722	686.984991620126	1
0	4723	687.218309750131	0
0	4732	687.955385901344	1
0	4734	688.047779927002	2
0	4735	688.129398889735	1
0	4739	688.441799995046	2
0	4740	688.450969471166	1
0	4744	688.721104132255	2
0	4745	688.772540052597	1
0	4748	689.094110634028	0
0	4757	692.31540234741	1
0	4758	692.573425974392	0
0	4772	693.634633106411	1
0	4773	693.922632493339	0
0	4777	694.046046872028	1
0	4778	694.24420307477	0
0	4797	696.301214934022	1
0	4798	696.36530342254	0
0	4818	698.633728629799	1
0	4819	698.767843617181	0
0	4828	699.364444548128	1
0	4829	699.482961048741	0
0	4833	699.580722743631	1
0	4834	699.804531630172	0
0	4838	699.84396201219	1
0	4840	700.059075257876	2
0	4842	700.101221821375	3
0	4843	700.126102211603	2
0	4847	700.18102499806	3
0	4848	700.447672793034	2
0	4851	700.769243374465	1
0	4854	701.090813955896	0
0	4863	702.552634485304	1
0	4864	702.678842321409	0
0	4873	703.127922005566	1
0	4874	703.368208858198	0
0	4888	705.956080035668	1
0	4890	706.098715284008	2
0	4891	706.154122079635	1
0	4894	706.475692661066	0
0	4903	707.026427758642	1
0	4905	707.153265996287	2
0	4906	707.213844431928	1
0	4909	707.535415013359	0
0	4918	708.925215899195	1
0	4919	708.956612245878	0
0	4928	709.857369170865	1
0	4929	710.100789573672	0
0	4948	712.225995165923	1
0	4949	712.405408123714	0
0	4958	712.884922180395	1
0	4960	713.035256944119	2
0	4961	713.200538958064	1
0	4965	713.383769891834	2
0	4966	713.522109539495	1
0	4970	713.772392214152	2
0	4971	713.843680120926	1
0	4974	714.165250702357	0
0	4978	714.239050145762	1
0	4980	714.318216085406	2
0	4981	714.486821283788	1
0	4984	714.808391865219	0
0	5053	726.045290506576	1
0	5055	726.055195624596	2
0	5056	726.145542823816	1
0	5061	726.710324233458	0
0	5089	735.166067269979	1
0	5090	735.185647423015	0
0	5094	735.247136041705	1
0	5096	735.386355017425	2
0	5097	735.507218004446	1
0	5100	735.828788585877	0
0	5104	735.996455035187	1
0	5105	736.150359167308	0
0	5109	736.404320046039	1
0	5110	736.471929748739	0
0	5129	740.054781727805	1
0	5130	740.26700832086	0
0	5134	740.375448451946	1
0	5136	740.570771506349	2
0	5137	740.588578902291	1
0	5141	740.790007472817	2
0	5142	740.910149483722	1
0	5145	741.231720065153	0
0	5149	741.349378561653	1
0	5150	741.553290646584	0
0	5154	741.576430173098	1
0	5155	741.874861228015	0
0	5164	742.452653292688	1
0	5165	742.732429819559	0
0	5169	742.805247016463	1
0	5170	743.05400040099	0
0	5174	743.074257776455	1
0	5175	743.375570982421	0
0	5179	743.44385899414	1
0	5180	743.697141563852	0
0	5184	743.778098790437	1
0	5185	744.018712145283	0
0	5194	745.10645775713	1
0	5195	745.2295807633	0
0	5234	750.460430194389	1
0	5235	750.623802642715	0
0	5239	750.916521382139	1
0	5240	750.945373224146	0
0	5254	754.917463723143	1
0	5255	755.054798299481	0
0	5269	756.45124228591	1
0	5270	756.530265372379	0
0	5289	759.511805177893	1
0	5290	759.663042476963	0
0	5299	760.272193980094	1
0	5300	760.550213692006	0
0	5309	761.643010280458	1
0	5313	761.667507668948	2
0	5315	761.793026633674	3
0	5316	761.890440655438	2
0	5318	762.212011236869	1
0	5322	762.213464347098	2
0	5323	762.5335818183	1
0	5327	762.69277934445	2
0	5328	762.855152399731	1
0	5331	763.176722981162	0
0	5335	763.201499382913	1
0	5336	763.498293562593	0
0	5350	766.76887419026	1
0	5351	766.84797006073	0
0	5380	772.004390016485	1
0	5381	772.316076898268	0
0	5400	776.232814101655	1
0	5401	776.396634030106	0
0	5405	776.440448938481	1
0	5406	776.718204611537	0
0	5425	780.608743168202	1
0	5426	780.87812540064	0
0	5430	781.008781674257	1
0	5431	781.199695982071	0
0	5435	781.499000056785	1
0	5436	781.521266563502	0
0	5465	786.762991507225	1
0	5467	786.847512314694	2
0	5468	786.908196168304	1
0	5471	787.229766749735	0
0	5485	789.738752542775	1
0	5487	789.744207970926	2
0	5488	789.78921366405	1
0	5492	789.92820601457	2
0	5493	790.110784245481	1
0	5496	790.432354826912	0
0	5535	795.793046135339	1
0	5536	795.879536461224	0
0	5540	796.027322457784	1
0	5542	796.137689566926	2
0	5543	796.201107042655	1
0	5546	796.522677624086	0
0	5550	796.558916357195	1
0	5551	796.844248205517	0
0	5581	800.833395747222	1
0	5582	801.111903498038	0
0	5611	805.930041274255	1
0	5612	806.140205016244	0
0	5616	806.340102613333	1
0	5617	806.461775597675	0
0	5621	806.64537812895	1
0	5622	806.783346179106	0
0	5636	809.582073773247	1
0	5637	809.788641274885	0
0	5641	809.96605609954	1
0	5642	810.110211856316	0
0	5671	815.29600518507	1
0	5672	815.556139841262	0
0	5676	815.613270464281	1
0	5677	815.877710422693	0
0	5701	819.482065026559	1
0	5702	819.774653108181	0
0	5716	822.74822383996	1
0	5717	822.866672067934	0
0	5766	829.325000764286	1
0	5768	829.476246273993	2
0	5769	829.643308042504	1
0	5772	829.964878623935	0
0	5791	832.449507198517	1
0	5792	832.733859320214	0
0	5796	833.003918616256	1
0	5797	833.055429901645	0
0	5801	833.354934373387	1
0	5802	833.377000483076	0
0	5832	838.75428202112	1
0	5833	838.944948795021	0
0	5862	844.204446145297	1
0	5864	844.405953252655	2
0	5865	844.495436265736	1
0	5868	844.817006847167	0
0	5892	847.609314698922	1
0	5893	847.911529746298	0
0	5902	848.616743660409	1
0	5903	848.931381148544	0
0	5912	849.708027717182	1
0	5913	849.851638070943	0
0	5917	849.860350931569	1
0	5918	850.173208652374	0
0	5922	850.355795633269	1
0	5923	850.494779233805	0
0	5932	853.239639308199	1
0	5933	853.30815157369	0
0	5937	853.476886853609	1
0	5938	853.629722155121	0
0	5942	853.864599196639	1
0	5943	853.951292736552	0
0	5962	856.494088317381	1
0	5963	856.504273971493	0
0	5972	858.287868871129	1
0	5973	858.357255095385	0
0	5982	859.653963326423	1
0	5983	859.952604159819	0
0	5987	860.27174557343	1
0	5988	860.27417474125	0
0	5992	860.593643521964	1
0	5993	860.595745322681	0
0	6022	867.066333901218	1
0	6023	867.079175352565	0
0	6047	871.956057731995	1
0	6048	872.071898696993	0
0	6062	873.817574522896	1
0	6065	874.314678948631	0
0	6068	874.390306166204	1
0	6070	874.457374025015	2
0	6071	874.636249530062	1
0	6075	874.774929380507	2
0	6076	874.957820111493	1
0	6080	875.242704262763	2
0	6081	875.279390692924	1
0	6085	875.304873067286	2
0	6086	875.600961274355	1
0	6090	875.861350322501	2
0	6091	875.922531855786	1
0	6094	876.244102437217	0
0	6098	876.331927981455	1
0	6099	876.565673018648	0
0	6113	878.450909932401	1
0	6114	878.603982729538	0
0	6128	880.450963528104	1
0	6129	880.732773122606	0
0	6133	880.934750855531	1
0	6134	881.054343704037	0
0	6153	883.369293655692	1
0	6154	883.396974004771	0
0	6158	883.444075812917	1
0	6160	883.64658396221	2
0	6161	883.718544586202	1
0	6164	884.040115167633	0
0	6168	884.345069378016	1
0	6169	884.361685749064	0
0	6173	884.593467867833	1
0	6174	884.683256330495	0
0	6188	886.155304426194	1
0	6189	886.266688322057	0
0	6193	886.474505851723	1
0	6194	886.588258903488	0
0	6198	886.6431367272	1
0	6200	886.859129403207	2
0	6201	886.909829484919	1
0	6204	887.23140006635	0
0	6208	887.511888661508	1
0	6209	887.552970647781	0
0	6213	887.72966417923	1
0	6214	887.874541229212	0
0	6228	890.738668194995	1
0	6229	890.950119801579	0
0	6263	898.716905015397	1
0	6264	898.793213596624	0
0	6278	900.720509059237	1
0	6280	900.749578345619	2
0	6282	900.805804996895	3
0	6283	900.975179775137	2
0	6286	901.296750356568	1
0	6289	901.618320937999	0
0	6298	903.558572837225	1
0	6300	903.629324366381	2
0	6301	903.836109230638	1
0	6304	904.157679812069	0
0	6308	904.242806009782	1
0	6310	904.345067743086	2
0	6311	904.4792503935	1
0	6317	905.000492772825	2
0	6318	905.044031803142	1
0	6320	905.365602384573	0
0	6334	908.366318084766	1
0	6336	908.381826055778	2
0	6337	908.661055535337	1
0	6340	908.982626116768	0
0	6359	911.47728339299	1
0	6360	911.708493341792	0
0	6369	913.491965000809	1
0	6370	913.513114305297	0
0	6374	913.78063775749	1
0	6375	913.834684886728	0
0	6379	913.902485605601	1
0	6380	914.156255468159	0
0	6394	916.004078353936	1
0	6395	916.305726041044	0
0	6399	916.510548097679	1
0	6401	916.578325348851	2
0	6402	916.627296622475	1
0	6406	916.727533671986	2
0	6407	916.948867203906	1
0	6410	917.270437785337	0
0	6429	922.268089006348	1
0	6431	922.493222560762	2
0	6432	922.532058266178	1
0	6435	922.853628847609	0
0	6439	923.012902781636	1
0	6440	923.17519942904	0
0	6449	923.749266727505	1
0	6450	923.843773443755	0
0	6454	923.932985837207	1
0	6456	924.026588251227	2
0	6458	924.042211117354	3
0	6459	924.165344025186	2
0	6462	924.486914606617	1
0	6465	924.808485188048	0
0	6479	927.014163112204	1
0	6480	927.090568080111	0
0	6484	927.126877901109	1
0	6485	927.412138661542	0
0	6489	927.598364053319	1
0	6490	927.733709242973	0
0	6494	927.971868592266	1
0	6495	928.055279824404	0
0	6499	928.206261972249	1
0	6501	928.228906116431	2
0	6502	928.376850405835	1
0	6505	928.698420987266	0
0	6514	930.572510227071	1
0	6516	930.582987172561	2
0	6517	930.88010287732	1
0	6520	931.201673458751	0
0	6524	931.519257572928	1
0	6525	931.523244040182	0
0	6554	934.613745742753	1
0	6556	934.62315854151	2
0	6557	934.738447423214	1
0	6561	934.974299310269	2
0	6563	934.978402945944	3
0	6565	934.985009577747	4
0	6566	935.060018004645	3
0	6571	935.624799414287	2
0	6574	935.75229943771	3
0	6575	935.946369995718	2
0	6577	935.946369995718	1
0	6578	935.946369995718	0
0	6636	944.557396464789	1
0	6637	944.778439901334	0
0	6641	945.080848664382	1
0	6642	945.100010482765	0
0	6656	946.657566673499	1
0	6658	946.723782537162	2
0	6660	946.944886929935	3
0	6661	946.957943072723	2
0	6664	947.279513654154	1
0	6668	947.43503615593	2
0	6669	947.601084235585	1
0	6673	947.797812366465	2
0	6674	947.922654817016	1
0	6677	948.244225398447	0
0	6681	948.412539784468	1
0	6682	948.565795979878	0
0	6691	949.26421239909	1
0	6692	949.551106792273	0
0	6696	949.672504163517	1
0	6698	949.707498846535	2
0	6700	949.784182583419	3
0	6701	949.872677373704	2
0	6704	950.194247955135	1
0	6708	950.31930992927	2
0	6709	950.515818536566	1
0	6712	950.837389117997	0
0	6716	950.994863499056	1
0	6717	951.158959699428	0
0	6721	951.313231491531	1
0	6723	951.404054782704	2
0	6724	951.480530280859	1
0	6728	951.48099862181	2
0	6729	951.80210086229	1
0	6732	952.123671443721	0
0	6751	956.323414020854	1
0	6752	956.469384512561	0
0	6781	962.38136795744	1
0	6782	962.660225024397	0
0	6806	967.953328794645	1
0	6807	967.99903694042	0
0	6832	972.874159971693	1
0	6833	972.944865344688	0
0	6847	976.090509242338	1
0	6849	976.188681435488	2
0	6850	976.247939284163	1
0	6853	976.569509865594	0
0	6862	978.41354401978	1
0	6863	978.439124947425	0
0	6872	980.512388020924	1
0	6873	980.617167586843	0
0	6897	983.737993887343	1
0	6898	983.887073184409	0
0	6907	985.096017918655	1
0	6908	985.182615178224	0
0	6912	985.217031858237	1
0	6913	985.504185759655	0
0	6917	985.636640301711	1
0	6918	985.825756341086	0
0	6932	990.052109530582	1
0	6934	990.070042281685	2
0	6935	990.251967423099	1
0	6939	990.438373704353	2
0	6940	990.57353800453	1
0	6943	990.895108585961	0
0	6972	995.330029184663	1
0	6973	995.465524832154	0
1	6	0.813979998413	0.066985793473
1	16	1.84251632848	0.105816780013
1	26	2.627771646025	0.031393911537
1	53	7.748683280036	0.252272376937
1	56	8.070253861467	0.569297206914
1	96	14.137395876535	0.092160222241
1	111	18.269807579208	0.236087466888
1	116	18.591378160639	0.161486364343
1	136	22.083253717144	0.089640319546
1	141	22.404824298575	0.313420867655
1	156	23.937748196857	0.214463762319
1	171	25.502686158244	0.170641132795
1	178	25.824256739675	0.180945530883
1	181	26.145827321106	0.428836427857
1	191	26.939035827054	0.132895056729
1	233	32.505497297769	0.24133418159
1	236	32.8270678792	0.529809051911
1	262	36.496967019701	0.036609229412
1	269	36.818537601132	0.149914955428
1	272	37.140108182563	0.465598859599
1	277	37.461678763994	0.091525223839
1	302	44.583755346404	0.176467451283
1	317	48.839735666871	0.038545155425
1	369	59.130289805424	0.240466432945
1	374	59.451860386855	0.342587991255
1	377	59.773430968286	0.634354702524
1	392	62.086207377869	0.118821657384
1	457	75.478789813562	0.066896860867
1	484	79.930730043468	0.296878312564
1	489	80.252300624899	0.347637946407
1	492	80.57387120633	0.618201290307
1	499	80.895441787761	0.282266410901
1	504	81.460223197403	0.826158644696
1	538	87.026069318067	0.073343145686
1	545	87.347639899498	0.287776965103
1	550	87.669210480929	0.46919988735
1	553	87.99078106236	0.439279664191
1	563	89.534766948882	0.18312541616
1	573	92.515986826042	0.021817717174
1	598	96.682752047472	0.082954914704
1	603	97.004322628903	0.156543218083
1	613	97.791220573107	0.266714359332
1	668	108.114755883516	0.090584711704
1	688	111.340312922173	0.030285571094
1	723	115.878989653776	0.220185293052
1	728	116.200560235207	0.202900281799
1	748	119.346773575395	0.028856551635
1	755	119.911554985037	0.355512801382
1	773	121.423343537267	0.2659260178
1	776	121.744914118698	0.49899162331
1	779	122.066484700129	0.753423600461
1	784	122.38805528156	0.284082601239
1	789	122.709625862991	0.042121172843
1	819	131.929224627826	0.301315029112
1	824	132.250795209257	0.008971949304
1	861	140.499159848605	0.11955787859
1	864	140.820730430036	0.410203239228
1	884	145.898037719377	0.05161941198
1	894	147.195177458894	0.092863954638
1	904	148.721362933921	0.014392791761
1	911	149.042933515352	0.094478636514
1	916	149.364504096783	0.328167689334
1	919	149.686074678214	0.563817308917
1	939	151.641045981451	0.145254118903
1	946	151.962616562882	0.26721848556
1	949	152.284187144313	0.492373232073
1	954	152.605757725744	0.004980042996
1	961	152.927328307175	0.186635945827
1	964	153.248898888606	0.464493334904
1	969	153.570469470037	0.027178371985
1	974	153.892040051468	0.056288289212
1	989	155.976920652854	0.066264784724
1	1006	157.476856353215	0.305372167212
1	1030	160.245045240866	0.298605066191
1	1040	161.497892929096	0.010170516567
1	1050	163.234292341582	0.304241416745
1	1055	163.555862923013	0.210264978148
1	1065	164.545041422162	0.017514592271
1	1070	164.866612003593	0.180894659292
1	1075	165.188182585024	0.228603693579
1	1082	165.509753166455	0.265814907297
1	1085	165.831323747886	0.470606235231
1	1097	166.647376775844	0.216032444601
1	1102	166.968947357275	0.407231477316
1	1105	167.290517938706	0.584664770692
1	1110	167.612088520137	0.273331216652
1	1120	169.116609834365	0.298803714876
1	1140	172.210236306621	0.254576867165
1	1170	179.430181540855	0.105116940278
1	1185	181.303236180059	0.284508628927
1	1192	181.62480676149	0.212796595313
1	1195	181.946377342921	0.419500521702
1	1215	184.568158642036	0.222615729625
1	1220	184.889729223467	0.000492061254
1	1250	190.197554859156	0.092544159515
1	1281	198.752083506564	0.074043199484
1	1291	199.458136664331	0.233250473326
1	1296	199.779707245762	0.182924637207
1	1316	202.955198670187	0.120183046915
1	1326	205.513936353285	0.244666767707
1	1336	211.644830734559	0.192457601677
1	1361	216.189664670268	0.090771423259
1	1366	216.511235251699	0.246312781848
1	1378	218.407878147903	0.041028732299
1	1381	218.729448729334	0.327614669304
1	1396	221.534646165924	0.185960464889
1	1401	221.856216747355	0.1621890453
1	1416	223.840098746242	0.212324845349
1	1446	229.143451988243	0.204409128043
1	1456	231.26790412325	0.049996747764
1	1463	231.589474704681	0.302889605113
1	1470	231.911045286112	0.394576724618
1	1475	232.232615867543	0.444814377492
1	1478	232.554186448974	0.734464155031
1	1483	232.875757030405	0.64938754772
1	1486	233.197327611836	0.627687988853
1	1493	233.518898193267	0.297829306389
1	1496	233.840468774698	0.485657250053
1	1537	240.520957126594	0.220361129607
1	1544	240.842527708025	0.200223169882
1	1547	241.164098289456	0.383880871529
1	1552	241.485668870887	0.264785809705
1	1567	245.941088781344	0.072342669089
1	1574	246.262659362775	0.165986750267
1	1579	246.584229944206	0.344900234194
1	1582	246.905800525637	0.531807968209
1	1592	247.622202419618	0.22737472678
1	1602	248.49049839635	0.146960065112
1	1622	253.045247587449	0.132727410368
1	1634	254.350432365192	0.304858841899
1	1639	254.672002946623	0.620998326593
1	1642	254.993573528054	0.363530202427
1	1654	256.68292839891	0.08989975665
1	1657	257.004498980341	0.344988734757
1	1662	257.326069561772	0.162939448218
1	1687	261.396789795158	0.124136283368
1	1702	263.861142056372	0.141743582111
1	1727	271.078837949198	0.069233466855
1	1768	279.858448474605	0.208181136015
1	1773	280.180019056036	0.234237536041
1	1783	281.077514253827	0.020801775142
1	1788	281.399084835258	0.087693965742
1	1798	284.116718664326	0.193212297188
1	1813	285.580626774697	0.170773018073
1	1818	285.902197356128	0.255157087244
1	1823	286.223767937559	0.098766115314
1	1833	287.094813053474	0.156589329163
1	1838	287.416383634905	0.257684482799
1	1843	287.737954216336	0.290085766851
1	1848	288.059524797767	0.169618017622
1	1867	291.502016199517	0.178827635697
1	1870	291.823586780948	0.343339011618
1	1873	292.145157362379	0.655650772417
1	1908	300.137808224596	0.319037086938
1	1932	302.555181582928	0.318748009273
1	1935	302.876752164359	0.610334103179
1	1940	303.19832274579	0.735753144698
1	1943	303.519893327221	0.404839038984
1	1955	304.209210597038	0.189397257605
1	1958	304.530781178469	0.38984202618
1	1963	304.8523517599	0.264614856005
1	1973	308.225700191582	0.009812674922
1	1983	308.94714863336	0.131420003241
1	1998	310.419195388547	0.292333987628
1	2029	313.63357807277	0.288675518154
1	2066	318.69639735625	0.31139966541
1	2069	319.017967937681	0.353055305189
1	2104	325.834987507726	0.012218745791
1	2141	334.380493292449	0.271300322455
1	2146	334.70206387388	0.546750965591
1	2149	335.023634455311	0.3574829738
1	2159	336.051776297357	0.313519567748
1	2179	339.988403899129	0.169172571524
1	2184	340.30997448056	0.27740849255
1	2189	340.631545061991	0.258619765539
1	2194	340.953115643422	0.110586776317
1	2206	341.784582905813	0.100565830295
1	2209	342.106153487244	0.333507104756
1	2224	343.283558801531	0.128034288362
1	2234	344.354332123697	0.314122978542
1	2265	348.573946072982	0.019540159261
1	2281	349.75700991321	0.258166111205
1	2288	350.078580494641	0.544547661468
1	2291	350.400151076072	0.723706181437
1	2298	350.721721657503	1.029480280172
1	2300	350.721721657503	0.824306095246
1	2302	351.043292238934	1.112278476071
1	2304	351.043292238934	0.470356401
1	2306	351.364862820365	0.769762637098
1	2328	354.387611605893	0.19851447328
1	2331	354.709182187324	0.459294001228
1	2336	355.030752768755	0.00299529401
1	2343	355.352323350186	0.274778257842
1	2348	355.673893931617	0.356068735125
1	2353	355.995464513048	0.42802146955
1	2356	356.317035094479	0.325870324791
1	2411	365.499626485109	0.070824356184
1	2426	367.945089388445	0.315752181777
1	2431	368.266659969876	0.147873034865
1	2461	372.677085765614	0.201774738636
1	2466	372.998656347045	0.312253749899
1	2481	374.547038729527	0.31408085808
1	2498	376.029210119355	0.141508043403
1	2501	376.350780700786	0.408934315371
1	2529	380.339371765408	0.311021913149
1	2534	380.660942346839	0.361269522483
1	2537	380.98251292827	0.385328767106
1	2542	381.304083509701	0.116447559885
1	2549	381.625654091132	0.085079724577
1	2552	381.947224672563	0.399238120271
1	2557	382.268795253994	0.106406878245
1	2562	382.590365835425	0.116233417667
1	2567	382.911936416856	0.232278899542
1	2572	383.233506998287	0.195876698932
1	2587	385.728294442394	0.131085976092
1	2599	386.789593415135	0.197096557521
1	2604	387.111163996566	0.388538913987
1	2607	387.432734577997	0.526177358625
1	2612	387.754305159428	0.208519970068
1	2622	390.028879490202	0.164859022199
1	2652	397.383887853048	0.083781911572
1	2672	401.807722910001	0.069307415018
1	2717	409.152736381303	0.086554618728
1	2722	409.474306962734	0.27995974249
1	2727	409.795877544165	0.224993736741
1	2737	410.889106184748	0.020376792793
1	2756	412.315273277733	0.277111153983
1	2761	412.636843859164	0.517831637492
1	2764	412.958414440595	0.680192962426
1	2773	413.523195850237	1.09716004165
1	2774	413.523195850237	0.447900999454
1	2776	413.844766431668	0.545959326791
1	2786	414.518585909257	0.101426266463
1	2793	414.840156490688	0.302837017952
1	2796	415.161727072119	0.578558481963
1	2801	415.48329765355	0.077732500609
1	2808	415.804868234981	0.220028261703
1	2811	416.126438816412	0.450318018191
1	2821	417.071926592011	0.284400809635
1	2841	422.6589525363	0.067254247444
1	2846	422.980523117731	0.040675423129
1	2851	423.302093699162	0.293553015948
1	2858	423.623664280593	0.263074249901
1	2861	423.945234862024	0.528385525807
1	2866	424.266805443455	0.150533490765
1	2876	424.999999656352	0.046443026433
1	2886	428.272531236756	0.076235401736
1	2916	433.024940348339	0.060621442793
1	2926	436.600490718792	0.014921298214
1	2951	439.69112205921	0.124645731865
1	2961	445.125347485677	0.316791333139
1	2986	451.052037514016	0.182845696511
1	2991	451.373608095447	0.092141533867
1	2998	451.695178676878	0.151630204998
1	3005	452.016749258309	0.467903626248
1	3010	452.33831983974	0.607131427208
1	3013	452.659890421171	0.704264805936
1	3018	452.981461002602	0.673697032309
1	3027	453.546242412244	0.577283752458
1	3029	453.867812993675	0.756414069001
1	3036	454.189383575106	0.951555523815
1	3038	454.189383575106	0.075715533118
1	3042	454.510954156537	0.377110735012
1	3047	454.832524737968	0.478358310347
1	3052	455.154095319399	0.600906946563
1	3055	455.47566590083	0.550044535127
1	3075	458.050844513995	0.062049720371
1	3085	459.61381487199	0.029354530215
1	3095	462.220038258823	0.198320926218
1	3110	463.996789040476	0.145294324464
1	3120	464.804609647605	0.129674141424
1	3135	466.466261405972	0.16503938253
1	3140	466.787831987403	0.147248609223
1	3147	467.109402568834	0.237248773181
1	3152	467.430973150265	0.52301786559
1	3159	467.752543731696	0.530220849424
1	3162	468.074114313127	0.622077245848
1	3165	468.395684894558	0.822311897691
1	3175	469.600403826793	0.040384769608
1	3180	469.921974408224	0.059329222324
1	3190	470.662687086794	0.150415423686
1	3195	470.984257668225	0.10966926403
1	3205	471.92659876597	0.00957226721
1	3212	472.248169347401	0.24915165469
1	3215	472.569739928832	0.429119791198
1	3227	473.48336394408	0.270182633662
1	3232	473.804934525511	0.503525349179
1	3239	474.126505106942	0.370337323443
1	3244	474.448075688373	0.584095833822
1	3249	474.769646269804	0.672209437828
1	3252	475.091216851235	0.672614596319
1	3257	475.412787432666	0.788583256053
1	3260	475.734358014097	0.483503015145
1	3279	478.539155638085	0.328340530728
1	3281	478.860726219516	0.627377531322
1	3291	479.982750362494	0.255531347133
1	3321	483.841536770614	0.109365453119
1	3361	492.832642262602	0.023318812641
1	3371	493.769940177551	0.237915344857
1	3398	498.537538965613	0.070378523828
1	3401	498.859109547044	0.331258253375
1	3416	501.535657611167	0.154587800887
1	3441	507.321764803142	0.315031088498
1	3446	507.643335384573	0.2391129495
1	3458	508.528851106891	0.183904769695
1	3461	508.850421688322	0.401301595441
1	3496	511.969784964627	0.268265915931
1	3501	512.291355546058	0.254671850389
1	3513	512.999540942587	0.3170717009
1	3516	513.321111524018	0.389633925862
1	3552	520.49249810326	0.266585878728
1	3572	522.110324633547	0.27577551405
1	3589	523.934307880728	0.185233588423
1	3594	524.255878462159	0.340727658783
1	3597	524.57744904359	0.48589422438
1	3612	526.39595403587	0.154531502287
1	3632	528.415258847683	0.266098040123
1	3644	529.393386741572	0.107268936108
1	3651	529.714957323003	0.342539698845
1	3654	530.036527904434	0.493419007489
1	3659	530.358098485865	0.675930102134
1	3666	530.679669067296	0.636980897268
1	3671	531.001239648727	0.622119653272
1	3674	531.322810230158	0.841801713964
1	3679	531.644380811589	0.722096069653
1	3682	531.96595139302	0.579977282091
1	3694	533.25629708989	0.116754455061
1	3697	533.577867671321	0.337885720069
1	3732	541.843337595104	0.171045377524
1	3754	545.734083129109	0.2114495524
1	3761	546.05565371054	0.404730534202
1	3764	546.377224291971	0.598499918267
1	3767	546.698794873402	0.681192646883
1	3783	548.185187928652	0.070511789755
1	3793	549.158286695935	0.320364398584
1	3803	550.736719439206	0.258236003149
1	3813	551.463905634263	0.176346538602
1	3828	553.892367990521	0.151851015601
1	3833	554.213938571952	0.039605663579
1	3878	563.032756288168	0.009800395755
1	3888	563.909598930555	0.133717747565
1	3904	565.571240603321	0.212456317332
1	3911	565.892811184752	0.488716330388
1	3916	566.214381766183	0.777025303586
1	3923	566.535952347614	0.970671459
1	3925	566.535952347614	0.842212460453
1	3931	566.857522929045	1.136430654067
1	3933	566.857522929045	0.832960548214
1	3935	567.179093510476	0.825603116335
1	3940	567.500664091907	1.13857580485
1	3942	567.500664091907	0.95879973117
1	3943	567.500664091907	0.864230902467
1	3947	567.822234673338	0.571249190236
1	3950	568.143805254769	0.402620991354
1	4000	576.044056759442	0.212212306184
1	4051	587.327006128547	0.232556044354
1	4056	587.648576709978	0.064550597639
1	4061	587.970147291409	0.225561155388
1	4066	588.29171787284	0.27411395712
1	4071	588.613288454271	0.067161201391
1	4093	590.168421422948	0.243217570462
1	4096	590.489992004379	0.549658970443
1	4101	590.81156258581	0.242656621494
1	4131	597.208411414537	0.039827382027
1	4146	598.257742950531	0.02362299554
1	4151	598.579313531962	0.107212737968
1	4158	598.900884113393	0.234976136945
1	4161	599.222454694824	0.444198473365
1	4176	601.166729619884	0.321309199176
1	4191	606.376415964686	0.173888548342
1	4196	606.697986546117	0.051455220658
1	4201	607.019557127548	0.126875561879
1	4216	609.626909019361	0.160098519074
1	4236	611.551732984115	0.193399372636
1	4241	611.873303565546	0.119900485726
1	4246	612.194874146977	0.065961922257
1	4253	612.516444728408	0.220545790568
1	4256	612.838015309839	0.430248123517
1	4275	615.947323059309	0.246307652959
1	4282	616.26889364074	0.515395130159
1	4289	616.590464222171	0.808035060489
1	4296	616.912034803602	0.880771969218
1	4303	617.476816213244	1.418463658933
1	4304	617.476816213244	1.119090363948
1	4305	617.476816213244	1.045065856434
1	4306	617.476816213244	0.80010546337
1	4312	617.798386794675	0.941926888033
1	4315	618.119957376106	1.008508816806
1	4317	618.119957376106	0.59824229432
1	4319	618.441527957537	0.779751004761
1	4324	618.763098538968	0.039063597189
1	4364	625.002793125364	0.193113813516
1	4379	629.226431218788	0.090286634328
1	4384	629.548001800219	0.178212452369
1	4440	639.544807986982	0.307945634284
1	4443	639.866378568413	0.615579227626
1	4448	640.187949149844	0.873187818928
1	4451	640.509519731275	1.036475199454
1	4453	640.509519731275	0.514204232777
1	4467	644.299342606656	0.255805051368
1	4482	646.265740256247	0.287739476007
1	4497	648.724783986739	0.253495360385
1	4507	650.527547461214	0.144134898534
1	4517	652.399814325852	0.113798179602
1	4522	652.721384907283	0.144934633045
1	4527	653.042955488714	0.042269237879
1	4537	654.376946123668	0.062408384248
1	4559	658.551741465514	0.512584941327
1	4563	658.873312046945	0.207701118059
1	4568	659.194882628376	0.268482412099
1	4588	661.643532109905	0.232547916478
1	4613	668.202425037752	0.21316929326
1	4635	673.126504890398	0.273985453835
1	4640	673.448075471829	0.51794691514
1	4647	673.76964605326	0.37746217482
1	4650	674.091216634691	0.627622539669
1	4655	674.412787216122	0.816211733494
1	4658	674.734357797553	0.584144437465
1	4663	675.055928378984	0.279022706794
1	4723	687.218309750131	0.233318130005
1	4735	688.129398889735	0.174012988391
1	4740	688.450969471166	0.403189544164
1	4745	688.772540052597	0.330740057551
1	4748	689.094110634028	0.373006501773
1	4758	692.573425974392	0.258023626982
1	4773	693.922632493339	0.287999386928
1	4778	694.24420307477	0.198156202742
1	4798	696.36530342254	0.064088488518
1	4819	698.767843617181	0.134114987382
1	4829	699.482961048741	0.118516500613
1	4834	699.804531630172	0.223808886541
1	4843	700.126102211603	0.282140199413
1	4848	700.447672793034	0.388597535158
1	4851	700.769243374465	0.66802155309
1	4854	701.090813955896	0.909788957836
1	4864	702.678842321409	0.126207836105
1	4874	703.368208858198	0.240286852632
1	4891	706.154122079635	0.198042043967
1	4894	706.475692661066	0.376977377058
1	4906	707.213844431928	0.187416673286
1	4909	707.535415013359	0.382149017072
1	4919	708.956612245878	0.031396346683
1	4929	710.100789573672	0.243420402807
1	4949	712.405408123714	0.179412957791
1	4961	713.200538958064	0.315616777669
1	4966	713.522109539495	0.486852595376
1	4971	713.843680120926	0.459910229092
1	4974	714.165250702357	0.392858488205
1	4981	714.486821283788	0.247771138026
1	4984	714.808391865219	0.490175779813
1	5056	726.145542823816	0.10025231724
1	5061	726.710324233458	0.655128608862
1	5090	735.185647423015	0.019580153036
1	5097	735.507218004446	0.260081962741
1	5100	735.828788585877	0.442433568452
1	5105	736.150359167308	0.153904132121
1	5110	736.471929748739	0.0676097027
1	5130	740.26700832086	0.212226593055
1	5137	740.588578902291	0.213130450345
1	5142	740.910149483722	0.339377977373
1	5145	741.231720065153	0.441712592336
1	5150	741.553290646584	0.203912084931
1	5155	741.874861228015	0.298431054917
1	5165	742.732429819559	0.279776526871
1	5170	743.05400040099	0.248753384527
1	5175	743.375570982421	0.301313205966
1	5180	743.697141563852	0.253282569712
1	5185	744.018712145283	0.240613354846
1	5195	745.2295807633	0.12312300617
1	5235	750.623802642715	0.163372448326
1	5240	750.945373224146	0.028851842007
1	5255	755.054798299481	0.137334576338
1	5270	756.530265372379	0.079023086469
1	5290	759.663042476963	0.15123729907
1	5300	760.550213692006	0.278019711912
1	5316	761.890440655438	0.24743037498
1	5318	762.212011236869	0.544503567921
1	5323	762.5335818183	0.740555184626
1	5328	762.855152399731	0.641688052633
1	5331	763.176722981162	0.483943636712
1	5336	763.498293562593	0.29679417968
1	5351	766.84797006073	0.07909587047
1	5381	772.316076898268	0.311686881783
1	5401	776.396634030106	0.163819928451
1	5406	776.718204611537	0.277755673056
1	5426	780.87812540064	0.269382232438
1	5431	781.199695982071	0.190914307814
1	5436	781.521266563502	0.022266506717
1	5468	786.908196168304	0.145204661079
1	5471	787.229766749735	0.382254435041
1	5488	789.78921366405	0.050461121275
1	5493	790.110784245481	0.366576274555
1	5496	790.432354826912	0.504148812342
1	5536	795.879536461224	0.086490325885
1	5543	796.201107042655	0.173784584871
1	5546	796.522677624086	0.38498805716
1	5551	796.844248205517	0.285331848322
1	5582	801.111903498038	0.278507750816
1	5612	806.140205016244	0.210163741989
1	5617	806.461775597675	0.121672984342
1	5622	806.783346179106	0.137968050156
1	5637	809.788641274885	0.206567501638
1	5642	810.110211856316	0.144155756776
1	5672	815.556139841262	0.260134656192
1	5677	815.877710422693	0.264439958412
1	5702	819.774653108181	0.292588081622
1	5717	822.866672067934	0.118448227974
1	5769	829.643308042504	0.318307278218
1	5772	829.964878623935	0.488632349942
1	5792	832.733859320214	0.284352121697
1	5797	833.055429901645	0.051511285389
1	5802	833.377000483076	0.022066109689
1	5833	838.944948795021	0.190666773901
1	5865	844.495436265736	0.290990120439
1	5868	844.817006847167	0.411053594512
1	5893	847.911529746298	0.302215047376
1	5903	848.931381148544	0.314637488135
1	5913	849.851638070943	0.143610353761
1	5918	850.173208652374	0.312857720805
1	5923	850.494779233805	0.138983600536
1	5933	853.30815157369	0.068512265491
1	5938	853.629722155121	0.152835301512
1	5943	853.951292736552	0.086693539913
1	5963	856.504273971493	0.010185654112
1	5973	858.357255095385	0.069386224256
1	5983	859.952604159819	0.298640833396
1	5988	860.27417474125	0.00242916782
1	5993	860.595745322681	0.002101800717
1	6023	867.079175352565	0.012841451347
1	6048	872.071898696993	0.115840964998
1	6065	874.314678948631	0.497104425735
1	6071	874.636249530062	0.245943363858
1	6076	874.957820111493	0.500446086478
1	6081	875.279390692924	0.504461312417
1	6086	875.600961274355	0.358257011592
1	6091	875.922531855786	0.6176587885
1	6094	876.244102437217	0.382752114716
1	6099	876.565673018648	0.233745037193
1	6114	878.603982729538	0.153072797137
1	6129	880.732773122606	0.281809594502
1	6134	881.054343704037	0.119592848506
1	6154	883.396974004771	0.027680349079
1	6161	883.718544586202	0.274468773285
1	6164	884.040115167633	0.393531205423
1	6169	884.361685749064	0.016616371048
1	6174	884.683256330495	0.089788462662
1	6189	886.266688322057	0.111383895863
1	6194	886.588258903488	0.113753051765
1	6201	886.909829484919	0.266692757719
1	6204	887.23140006635	0.372270663143
1	6209	887.552970647781	0.041081986273
1	6214	887.874541229212	0.144877049982
1	6229	890.950119801579	0.211451606584
1	6264	898.793213596624	0.076308581227
1	6283	900.975179775137	0.2546707159
1	6286	901.296750356568	0.547172010949
1	6289	901.618320937999	0.812515941104
1	6301	903.836109230638	0.277536393413
1	6304	904.157679812069	0.528355445688
1	6311	904.4792503935	0.236444383718
1	6318	905.044031803142	0.698964060056
1	6320	905.365602384573	0.365109611748
1	6337	908.661055535337	0.294737450571
1	6340	908.982626116768	0.60080006099
1	6360	911.708493341792	0.231209948802
1	6370	913.513114305297	0.021149304488
1	6375	913.834684886728	0.054047129238
1	6380	914.156255468159	0.253769862558
1	6395	916.305726041044	0.301647687108
1	6402	916.627296622475	0.116748524796
1	6407	916.948867203906	0.370541855055
1	6410	917.270437785337	0.542904113351
1	6432	922.532058266178	0.26396925983
1	6435	922.853628847609	0.360406286847
1	6440	923.17519942904	0.162296647404
1	6450	923.843773443755	0.09450671625
1	6459	924.165344025186	0.232358187979
1	6462	924.486914606617	0.46032635539
1	6465	924.808485188048	0.766274070694
1	6480	927.090568080111	0.076404967907
1	6485	927.412138661542	0.285260760433
1	6490	927.733709242973	0.135345189654
1	6495	928.055279824404	0.083411232138
1	6502	928.376850405835	0.170588433586
1	6505	928.698420987266	0.469514870835
1	6517	930.88010287732	0.307592650249
1	6520	931.201673458751	0.61868628619
1	6525	931.523244040182	0.003986467254
1	6557	934.738447423214	0.124701680461
1	6566	935.060018004645	0.436859463135
1	6571	935.624799414287	0.650500104018
1	6575	935.946369995718	0.967967049774
1	6577	935.946369995718	0.961360417971
1	6578	935.946369995718	0.194070558008
1	6637	944.778439901334	0.221043436545
1	6642	945.100010482765	0.019161818383
1	6661	946.957943072723	0.300376399224
1	6664	947.279513654154	0.555731116992
1	6669	947.601084235585	0.65619730565
1	6674	947.922654817016	0.487618661086
1	6677	948.244225398447	0.446413031982
1	6682	948.565795979878	0.15325619541
1	6692	949.551106792273	0.286894393183
1	6701	949.872677373704	0.200173210187
1	6704	950.194247955135	0.4867491086
1	6709	950.515818536566	0.731635953147
1	6712	950.837389117997	0.518079188727
1	6717	951.158959699428	0.164096200372
1	6724	951.480530280859	0.167298789328
1	6729	951.80210086229	0.398046079586
1	6732	952.123671443721	0.642672821911
1	6752	956.469384512561	0.145970491707
1	6782	962.660225024397	0.278857066957
1	6807	967.99903694042	0.045708145775
1	6833	972.944865344688	0.070705372995
1	6850	976.247939284163	0.157430041825
1	6853	976.569509865594	0.380828430106
1	6863	978.439124947425	0.025580927645
1	6873	980.617167586843	0.104779565919
1	6898	983.887073184409	0.149079297066
1	6908	985.182615178224	0.086597259569
1	6913	985.504185759655	0.287153901418
1	6918	985.825756341086	0.189116039375
1	6935	990.251967423099	0.199857892517
1	6940	990.57353800453	0.503495722845
1	6943	990.895108585961	0.456734881608
1	6973	995.465524832154	0.135495647491
2	7	0.813979998413	0.321570581431
2	10	1.135550579844	0.388556374904
2	17	1.84251632848	0.321570581431
2	20	2.164086909911	0.427387361444
2	27	2.627771646025	0.321570581431
2	30	2.949342227456	0.352964492968
2	35	3.487198608043	0.321570581431
2	40	5.148966687121	0.321570581431
2	45	7.426739248708	0.321570581431
2	54	7.748683280036	0.321570581431
2	57	8.070253861467	0.573842958368
2	60	8.391824442898	0.890867788345
2	65	9.175308574229	0.321570581431
2	70	11.244394552102	0.321570581431
2	75	11.602447613309	0.321570581431
2	80	12.624658414818	0.321570581431
2	85	12.956449714022	0.321570581431
2	90	13.616310812946	0.321570581431
2	97	14.137395876535	0.321570581431
2	100	14.458966457966	0.413730803672
2	105	15.053399909283	0.321570581431
2	112	18.269807579208	0.321570581431
2	117	18.591378160639	0.557658048319
2	120	18.91294874207	0.483056945774
2	125	20.359163947265	0.321570581431
2	130	21.326411673295	0.321570581431
2	137	22.083253717144	0.321570581431
2	142	22.404824298575	0.411210900977
2	145	22.726394880006	0.634991449086
2	150	23.178473179675	0.321570581431
2	157	23.937748196857	0.321570581431
2	160	24.259318778288	0.53603434375
2	165	24.640678460523	0.321570581431
2	172	25.502686158244	0.321570581431
2	179	25.824256739675	0.492211714226
2	182	26.145827321106	0.502516112314
2	185	26.467397902537	0.750407009288
2	192	26.939035827054	0.321570581431
2	195	27.260606408485	0.45446563816
2	200	27.895537531176	0.321570581431
2	205	28.607746855212	0.321570581431
2	210	29.168757670514	0.321570581431
2	215	29.607669366998	0.321570581431
2	220	30.10049684924	0.321570581431
2	225	31.121425532026	0.321570581431
2	234	32.505497297769	0.321570581431
2	237	32.8270678792	0.562904763021
2	240	33.148638460631	0.851379633342
2	245	33.693600898117	0.321570581431
2	250	34.819796367807	0.321570581431
2	256	36.043581910093	0.321570581431
2	263	36.496967019701	0.321570581431
2	270	36.818537601132	0.358179810843
2	273	37.140108182563	0.471485536859
2	278	37.461678763994	0.78716944103
2	281	37.783249345425	0.41309580527
2	286	38.129059161128	0.321570581431
2	291	39.587896577049	0.321570581431
2	296	40.992428865745	0.321570581431
2	303	44.583755346404	0.321570581431
2	306	44.905325927835	0.498038032714
2	311	45.382209245753	0.321570581431
2	318	48.839735666871	0.321570581431
2	321	49.161306248302	0.360115736856
2	326	49.580575862058	0.321570581431
2	331	50.820769933115	0.321570581431
2	336	51.34693170636	0.321570581431
2	341	51.901163908182	0.321570581431
2	346	54.774769267024	0.321570581431
2	351	55.476905473984	0.321570581431
2	356	55.832935827838	0.321570581431
2	361	56.774875955884	0.321570581431
2	370	59.130289805424	0.321570581431
2	375	59.451860386855	0.562037014376
2	378	59.773430968286	0.664158572686
2	381	60.095001549717	0.955925283955
2	386	61.316214840994	0.321570581431
2	393	62.086207377869	0.321570581431
2	396	62.4077779593	0.440392238815
2	401	63.701009239711	0.321570581431
2	406	65.935499631694	0.321570581431
2	411	67.477952444726	0.321570581431
2	416	68.571755871975	0.321570581431
2	421	69.685148199802	0.321570581431
2	426	70.768958246657	0.321570581431
2	431	71.729262108396	0.321570581431
2	436	72.583913597123	0.321570581431
2	441	72.965755672316	0.321570581431
2	446	74.07068813855	0.321570581431
2	451	74.703355204105	0.321570581431
2	458	75.478789813562	0.321570581431
2	461	75.800360394993	0.388467442298
2	466	76.709825666195	0.321570581431
2	471	77.363453825931	0.321570581431
2	476	77.858892726416	0.321570581431
2	485	79.930730043468	0.321570581431
2	490	80.252300624899	0.618448893995
2	493	80.57387120633	0.669208527838
2	500	80.895441787761	0.939771871738
2	503	81.217012369192	0.603836992332
2	507	81.781793778834	1.147729226127
2	512	82.62735788022	0.321570581431
2	517	83.731092248104	0.321570581431
2	522	84.587843716715	0.321570581431
2	527	86.028341942082	0.321570581431
2	532	86.444467503819	0.321570581431
2	539	87.026069318067	0.321570581431
2	546	87.347639899498	0.394913727117
2	551	87.669210480929	0.609347546534
2	554	87.99078106236	0.790770468781
2	557	88.312351643791	0.760850245622
2	564	89.534766948882	0.321570581431
2	567	89.856337530313	0.504695997591
2	574	92.515986826042	0.321570581431
2	577	92.837557407473	0.343388298605
2	582	94.040937453777	0.321570581431
2	587	95.461801909608	0.321570581431
2	592	96.093493208606	0.321570581431
2	599	96.682752047472	0.321570581431
2	604	97.004322628903	0.404525496135
2	607	97.325893210334	0.478113799514
2	614	97.791220573107	0.321570581431
2	617	98.112791154538	0.588284940763
2	622	99.089687192159	0.321570581431
2	627	99.684072402774	0.321570581431
2	632	101.017624088243	0.321570581431
2	637	103.022803031096	0.321570581431
2	642	103.839530245614	0.321570581431
2	647	104.894639874272	0.321570581431
2	652	105.486921971475	0.321570581431
2	657	105.991858218739	0.321570581431
2	662	107.640969570444	0.321570581431
2	669	108.114755883516	0.321570581431
2	672	108.436326464947	0.412155293135
2	677	109.364535821591	0.321570581431
2	682	109.806901090591	0.321570581431
2	689	111.340312922173	0.321570581431
2	692	111.661883503604	0.351856152525
2	697	112.08867599184	0.321570581431
2	702	112.411155156562	0.321570581431
2	707	113.149236955066	0.321570581431
2	712	113.83371134318	0.321570581431
2	717	114.172630181344	0.321570581431
2	724	115.878989653776	0.321570581431
2	729	116.200560235207	0.541755874483
2	732	116.522130816638	0.52447086323
2	737	117.546434044739	0.321570581431
2	742	118.844472447247	0.321570581431
2	749	119.346773575395	0.321570581431
2	754	119.668344156826	0.350427133066
2	758	120.233125566468	0.677083382813
2	763	120.956785882462	0.321570581431
2	774	121.423343537267	0.321570581431
2	777	121.744914118698	0.587496599231
2	780	122.066484700129	0.820562204741
2	785	122.38805528156	1.074994181892
2	790	122.709625862991	0.60565318267
2	793	123.031196444422	0.363691754274
2	798	125.412347931486	0.321570581431
2	803	127.058785982584	0.321570581431
2	808	128.33117951657	0.321570581431
2	813	131.20115050996	0.321570581431
2	820	131.929224627826	0.321570581431
2	825	132.250795209257	0.622885610543
2	828	132.572365790688	0.330542530735
2	833	133.266831981183	0.321570581431
2	838	135.147003155273	0.321570581431
2	843	137.58066975601	0.321570581431
2	848	139.119236455046	0.321570581431
2	853	139.888916446213	0.321570581431
2	862	140.499159848605	0.321570581431
2	865	140.820730430036	0.441128460021
2	868	141.142301011467	0.731773820659
2	873	142.318010001549	0.321570581431
2	878	142.953793966349	0.321570581431
2	885	145.898037719377	0.321570581431
2	888	146.219608300808	0.373189993411
2	895	147.195177458894	0.321570581431
2	898	147.516748040325	0.414434536069
2	905	148.721362933921	0.321570581431
2	912	149.042933515352	0.335963373192
2	917	149.364504096783	0.416049217945
2	920	149.686074678214	0.649738270765
2	923	150.007645259645	0.885387890348
2	928	150.344621776554	0.321570581431
2	933	150.886999690693	0.321570581431
2	940	151.641045981451	0.321570581431
2	947	151.962616562882	0.466824700334
2	950	152.284187144313	0.588789066991
2	955	152.605757725744	0.813943813504
2	962	152.927328307175	0.326550624427
2	965	153.248898888606	0.508206527258
2	970	153.570469470037	0.786063916335
2	975	153.892040051468	0.348748953416
2	978	154.213610632899	0.377858870643
2	983	155.376936565555	0.321570581431
2	990	155.976920652854	0.321570581431
2	993	156.298491234285	0.387835366155
2	998	156.784421471314	0.321570581431
2	1005	157.233645525004	0.321570581431
2	1009	157.798426934646	0.626942748643
2	1014	158.407373961784	0.321570581431
2	1019	158.856957779439	0.321570581431
2	1024	159.471844744533	0.321570581431
2	1031	160.245045240866	0.321570581431
2	1034	160.566615822297	0.620175647622
2	1041	161.497892929096	0.321570581431
2	1044	161.819463510527	0.331741097998
2	1051	163.234292341582	0.321570581431
2	1056	163.555862923013	0.625811998176
2	1059	163.877433504444	0.531835559579
2	1066	164.545041422162	0.321570581431
2	1071	164.866612003593	0.339085173702
2	1076	165.188182585024	0.502465240723
2	1083	165.509753166455	0.55017427501
2	1086	165.831323747886	0.587385488728
2	1089	166.152894329317	0.792176816662
2	1098	166.647376775844	0.321570581431
2	1103	166.968947357275	0.537603026032
2	1106	167.290517938706	0.728802058747
2	1111	167.612088520137	0.906235352123
2	1114	167.933659101568	0.594901798083
2	1121	169.116609834365	0.321570581431
2	1124	169.438180415796	0.620374296307
2	1129	171.076181875725	0.321570581431
2	1134	171.65079825536	0.321570581431
2	1141	172.210236306621	0.321570581431
2	1144	172.531806888052	0.576147448596
2	1149	173.224117260688	0.321570581431
2	1154	174.036908871931	0.321570581431
2	1159	174.992759891435	0.321570581431
2	1164	177.09696574824	0.321570581431
2	1171	179.430181540855	0.321570581431
2	1174	179.751752122286	0.426687521709
2	1179	180.103607138057	0.321570581431
2	1186	181.303236180059	0.321570581431
2	1193	181.62480676149	0.606079210358
2	1196	181.946377342921	0.534367176744
2	1199	182.267947924352	0.741071103133
2	1204	182.96716639837	0.321570581431
2	1209	183.481485516459	0.321570581431
2	1216	184.568158642036	0.321570581431
2	1221	184.889729223467	0.544186311056
2	1224	185.211299804898	0.322062642685
2	1229	185.931757148981	0.321570581431
2	1234	187.449789588221	0.321570581431
2	1239	188.546463623763	0.321570581431
2	1244	189.731652626107	0.321570581431
2	1251	190.197554859156	0.321570581431
2	1254	190.519125440587	0.414114740946
2	1260	191.28357258779	0.321570581431
2	1265	191.981325696706	0.321570581431
2	1270	195.018257294235	0.321570581431
2	1275	198.332398760155	0.321570581431
2	1282	198.752083506564	0.321570581431
2	1285	199.073654087995	0.395613780915
2	1292	199.458136664331	0.321570581431
2	1297	199.779707245762	0.554821054757
2	1300	200.101277827193	0.504495218638
2	1305	200.715565739566	0.321570581431
2	1310	202.159214412376	0.321570581431
2	1317	202.955198670187	0.321570581431
2	1320	203.276769251618	0.441753628346
2	1327	205.513936353285	0.321570581431
2	1330	205.835506934716	0.566237349138
2	1337	211.644830734559	0.321570581431
2	1340	211.96640131599	0.514028183108
2	1345	212.464629571983	0.321570581431
2	1350	213.770016260022	0.321570581431
2	1355	214.734879021155	0.321570581431
2	1362	216.189664670268	0.321570581431
2	1367	216.511235251699	0.41234200469
2	1370	216.83280583313	0.567883363279
2	1379	218.407878147903	0.321570581431
2	1382	218.729448729334	0.36259931373
2	1385	219.051019310765	0.649185250735
2	1390	221.09477538263	0.321570581431
2	1397	221.534646165924	0.321570581431
2	1402	221.856216747355	0.50753104632
2	1405	222.177787328786	0.483759626731
2	1410	223.310173374264	0.321570581431
2	1417	223.840098746242	0.321570581431
2	1420	224.161669327673	0.53389542678
2	1425	225.087763202614	0.321570581431
2	1430	225.963668602186	0.321570581431
2	1435	227.348300063243	0.321570581431
2	1440	227.94007932917	0.321570581431
2	1447	229.143451988243	0.321570581431
2	1450	229.465022569674	0.525979709474
2	1457	231.26790412325	0.321570581431
2	1464	231.589474704681	0.371567329195
2	1471	231.911045286112	0.624460186544
2	1476	232.232615867543	0.716147306049
2	1479	232.554186448974	0.766384958923
2	1484	232.875757030405	1.056034736462
2	1487	233.197327611836	0.970958129151
2	1494	233.518898193267	0.949258570284
2	1497	233.840468774698	0.61939988782
2	1500	234.162039356129	0.807227831484
2	1505	235.725922381003	0.321570581431
2	1511	236.730774310365	0.321570581431
2	1516	238.131314731517	0.321570581431
2	1521	238.49984996149	0.321570581431
2	1526	239.230289807034	0.321570581431
2	1531	239.752456600694	0.321570581431
2	1538	240.520957126594	0.321570581431
2	1545	240.842527708025	0.541931711038
2	1548	241.164098289456	0.521793751313
2	1553	241.485668870887	0.70545145296
2	1556	241.807239452318	0.586356391136
2	1561	244.194261506192	0.321570581431
2	1568	245.941088781344	0.321570581431
2	1575	246.262659362775	0.39391325052
2	1580	246.584229944206	0.487557331698
2	1583	246.905800525637	0.666470815625
2	1586	247.227371107068	0.85337854964
2	1593	247.622202419618	0.321570581431
2	1596	247.943773001049	0.548945308211
2	1603	248.49049839635	0.321570581431
2	1606	248.812068977781	0.468530646543
2	1611	250.771022631994	0.321570581431
2	1616	252.71584507945	0.321570581431
2	1623	253.045247587449	0.321570581431
2	1626	253.36681816888	0.454297991799
2	1635	254.350432365192	0.321570581431
2	1640	254.672002946623	0.62642942333
2	1643	254.993573528054	0.942568908024
2	1646	255.315144109485	0.685100783858
2	1655	256.68292839891	0.321570581431
2	1658	257.004498980341	0.411470338081
2	1663	257.326069561772	0.666559316188
2	1666	257.647640143203	0.484510029649
2	1671	258.395539429286	0.321570581431
2	1676	259.115603429465	0.321570581431
2	1681	260.681197959047	0.321570581431
2	1688	261.396789795158	0.321570581431
2	1691	261.718360376589	0.445706864799
2	1696	262.564934194149	0.321570581431
2	1703	263.861142056372	0.321570581431
2	1706	264.182712637803	0.463314163542
2	1711	266.211886588874	0.321570581431
2	1716	267.399194204661	0.321570581431
2	1721	269.793909157367	0.321570581431
2	1728	271.078837949198	0.321570581431
2	1731	271.400408530629	0.390804048286
2	1736	272.091016582976	0.321570581431
2	1741	274.255342418339	0.321570581431
2	1746	276.073958358038	0.321570581431
2	1751	277.47652873023	0.321570581431
2	1756	278.052589418667	0.321570581431
2	1762	279.462954882531	0.321570581431
2	1769	279.858448474605	0.321570581431
2	1774	280.180019056036	0.529751717446
2	1777	280.501589637467	0.555808117472
2	1784	281.077514253827	0.321570581431
2	1789	281.399084835258	0.342372356573
2	1792	281.720655416689	0.409264547173
2	1799	284.116718664326	0.321570581431
2	1802	284.438289245757	0.514782878619
2	1807	284.982057524677	0.321570581431
2	1814	285.580626774697	0.321570581431
2	1819	285.902197356128	0.492343599504
2	1824	286.223767937559	0.576727668675
2	1827	286.54533851899	0.420336696745
2	1834	287.094813053474	0.321570581431
2	1839	287.416383634905	0.478159910594
2	1844	287.737954216336	0.57925506423
2	1849	288.059524797767	0.611656348282
2	1852	288.381095379198	0.491188599053
2	1857	290.683751746079	0.321570581431
2	1868	291.502016199517	0.321570581431
2	1871	291.823586780948	0.500398217128
2	1874	292.145157362379	0.664909593049
2	1877	292.46672794381	0.977221353848
2	1882	293.179700081399	0.321570581431
2	1887	293.972470793729	0.321570581431
2	1892	297.397264853517	0.321570581431
2	1897	298.144870929466	0.321570581431
2	1902	299.667591491685	0.321570581431
2	1909	300.137808224596	0.321570581431
2	1912	300.459378806027	0.640607668369
2	1917	301.332955568809	0.321570581431
2	1922	301.710331873638	0.321570581431
2	1933	302.555181582928	0.321570581431
2	1936	302.876752164359	0.640318590704
2	1941	303.19832274579	0.93190468461
2	1944	303.519893327221	1.057323726129
2	1947	303.841463908652	0.726409620415
2	1956	304.209210597038	0.321570581431
2	1959	304.530781178469	0.510967839036
2	1964	304.8523517599	0.711412607611
2	1967	305.173922341331	0.586185437436
2	1974	308.225700191582	0.321570581431
2	1977	308.547270773013	0.331383256353
2	1984	308.94714863336	0.321570581431
2	1987	309.268719214791	0.452990584672
2	1992	310.033104431551	0.321570581431
2	1999	310.419195388547	0.321570581431
2	2002	310.740765969978	0.613904569059
2	2007	311.848617427689	0.321570581431
2	2013	312.435551599365	0.321570581431
2	2018	312.845418898339	0.321570581431
2	2023	313.186123136902	0.321570581431
2	2030	313.63357807277	0.321570581431
2	2033	313.955148654201	0.610246099585
2	2038	314.656859156848	0.321570581431
2	2043	316.011435149123	0.321570581431
2	2048	316.452779457214	0.321570581431
2	2053	317.392604119306	0.321570581431
2	2058	317.875855142548	0.321570581431
2	2067	318.69639735625	0.321570581431
2	2070	319.017967937681	0.632970246841
2	2073	319.339538519112	0.67462588662
2	2078	319.920562268311	0.321570581431
2	2083	320.643078076379	0.321570581431
2	2088	322.346400636066	0.321570581431
2	2093	324.113058260143	0.321570581431
2	2098	325.421086021719	0.321570581431
2	2105	325.834987507726	0.321570581431
2	2108	326.156558089157	0.333789327222
2	2113	326.687022796217	0.321570581431
2	2118	327.590258973723	0.321570581431
2	2123	328.233988693936	0.321570581431
2	2128	329.487895731277	0.321570581431
2	2133	331.82438797351	0.321570581431
2	2142	334.380493292449	0.321570581431
2	2147	334.70206387388	0.592870903886
2	2150	335.023634455311	0.868321547022
2	2153	335.345205036742	0.679053555231
2	2160	336.051776297357	0.321570581431
2	2163	336.373346878788	0.635090149179
2	2168	337.543276833494	0.321570581431
2	2173	338.841131769943	0.321570581431
2	2180	339.988403899129	0.321570581431
2	2185	340.30997448056	0.490743152955
2	2190	340.631545061991	0.598979073981
2	2195	340.953115643422	0.58019034697
2	2198	341.274686224853	0.432157357748
2	2207	341.784582905813	0.321570581431
2	2210	342.106153487244	0.422136411726
2	2213	342.427724068675	0.655077686187
2	2218	342.900035894777	0.321570581431
2	2225	343.283558801531	0.321570581431
2	2228	343.605129382962	0.449604869793
2	2235	344.354332123697	0.321570581431
2	2238	344.675902705128	0.635693559973
2	2243	345.509504662896	0.321570581431
2	2248	346.231900741724	0.321570581431
2	2253	346.977717926263	0.321570581431
2	2258	347.877350423322	0.321570581431
2	2266	348.573946072982	0.321570581431
2	2269	348.895516654413	0.341110740692
2	2282	349.75700991321	0.321570581431
2	2289	350.078580494641	0.579736692636
2	2292	350.400151076072	0.866118242899
2	2299	350.721721657503	1.045276762868
2	2303	351.043292238934	1.145876676677
2	2307	351.364862820365	0.791926982431
2	2310	351.686433401796	1.091333218529
2	2315	352.377512527293	0.321570581431
2	2320	353.345084019978	0.321570581431
2	2329	354.387611605893	0.321570581431
2	2332	354.709182187324	0.520085054711
2	2337	355.030752768755	0.780864582659
2	2344	355.352323350186	0.324565875441
2	2349	355.673893931617	0.596348839273
2	2354	355.995464513048	0.677639316556
2	2357	356.317035094479	0.749592050981
2	2360	356.63860567591	0.647440906222
2	2365	357.517001990203	0.321570581431
2	2370	358.155593993669	0.321570581431
2	2375	358.559994585439	0.321570581431
2	2380	359.572605235106	0.321570581431
2	2385	360.668216195096	0.321570581431
2	2390	362.244625417171	0.321570581431
2	2395	362.880092560077	0.321570581431
2	2400	363.616065379435	0.321570581431
2	2405	365.037164271623	0.321570581431
2	2412	365.499626485109	0.321570581431
2	2415	365.82119706654	0.392394937615
2	2420	366.772768064676	0.321570581431
2	2427	367.945089388445	0.321570581431
2	2432	368.266659969876	0.637322763208
2	2435	368.588230551307	0.469443616296
2	2440	369.027985796117	0.321570581431
2	2445	370.385686720193	0.321570581431
2	2450	371.334971703995	0.321570581431
2	2455	372.098030982246	0.321570581431
2	2462	372.677085765614	0.321570581431
2	2467	372.998656347045	0.523345320067
2	2470	373.320226928476	0.63382433133
2	2475	374.136573874627	0.321570581431
2	2482	374.547038729527	0.321570581431
2	2485	374.868609310958	0.635651439511
2	2490	375.277019656269	0.321570581431
2	2499	376.029210119355	0.321570581431
2	2502	376.350780700786	0.463078624834
2	2505	376.672351282217	0.730504896802
2	2510	377.04467717993	0.321570581431
2	2515	378.754928726469	0.321570581431
2	2521	379.41773789633	0.321570581431
2	2530	380.339371765408	0.321570581431
2	2535	380.660942346839	0.63259249458
2	2538	380.98251292827	0.682840103914
2	2543	381.304083509701	0.706899348537
2	2550	381.625654091132	0.438018141316
2	2553	381.947224672563	0.406650306008
2	2558	382.268795253994	0.720808701702
2	2563	382.590365835425	0.427977459676
2	2568	382.911936416856	0.437803999098
2	2573	383.233506998287	0.553849480973
2	2576	383.555077579718	0.517447280363
2	2581	384.779157719235	0.321570581431
2	2588	385.728294442394	0.321570581431
2	2591	386.049865023825	0.452656557523
2	2600	386.789593415135	0.321570581431
2	2605	387.111163996566	0.518667138952
2	2608	387.432734577997	0.710109495418
2	2613	387.754305159428	0.847747940056
2	2616	388.075875740859	0.530090551499
2	2623	390.028879490202	0.321570581431
2	2626	390.350450071633	0.48642960363
2	2631	394.041140223275	0.321570581431
2	2636	394.569347681563	0.321570581431
2	2641	395.445519623832	0.321570581431
2	2646	395.972948620829	0.321570581431
2	2653	397.383887853048	0.321570581431
2	2656	397.705458434479	0.405352493003
2	2661	399.335511990194	0.321570581431
2	2666	399.955258091924	0.321570581431
2	2673	401.807722910001	0.321570581431
2	2676	402.129293491432	0.390877996449
2	2681	403.083806358125	0.321570581431
2	2686	403.746434720819	0.321570581431
2	2691	405.209421545708	0.321570581431
2	2696	405.60424577941	0.321570581431
2	2701	406.150843387961	0.321570581431
2	2706	407.963981311077	0.321570581431
2	2711	408.537507577966	0.321570581431
2	2718	409.152736381303	0.321570581431
2	2723	409.474306962734	0.408125200159
2	2728	409.795877544165	0.601530323921
2	2731	410.117448125596	0.546564318172
2	2738	410.889106184748	0.321570581431
2	2741	411.210676766179	0.341947374224
2	2746	411.853787036894	0.321570581431
2	2757	412.315273277733	0.321570581431
2	2762	412.636843859164	0.598681735414
2	2765	412.958414440595	0.839402218923
2	2770	413.279985022026	1.001763543857
2	2777	413.844766431668	0.769471580885
2	2780	414.166337013099	0.867529908222
2	2787	414.518585909257	0.321570581431
2	2794	414.840156490688	0.422996847894
2	2797	415.161727072119	0.624407599383
2	2802	415.48329765355	0.900129063394
2	2809	415.804868234981	0.39930308204
2	2812	416.126438816412	0.541598843134
2	2815	416.448009397843	0.771888599622
2	2822	417.071926592011	0.321570581431
2	2825	417.393497173442	0.605971391066
2	2830	420.337423520915	0.321570581431
2	2835	420.733772310306	0.321570581431
2	2842	422.6589525363	0.321570581431
2	2847	422.980523117731	0.388824828875
[...]
8	3099	462.541608840254	0
8	3104	463.619481943983	0
8	3111	463.996789040476	0
8	3114	464.318359621907	0
8	3121	464.804609647605	0
8	3124	465.126180229036	0
8	3129	465.643545659188	0
8	3136	466.466261405972	0
8	3141	466.787831987403	0
8	3148	467.109402568834	0
8	3153	467.430973150265	0
8	3160	467.752543731696	0
8	3163	468.074114313127	0
8	3166	468.395684894558	0
8	3169	468.717255475989	0
8	3176	469.600403826793	0
8	3181	469.921974408224	0
8	3184	470.243544989655	0
8	3191	470.662687086794	0
8	3196	470.984257668225	0
8	3199	471.305828249656	0
8	3206	471.92659876597	0
8	3213	472.248169347401	0
8	3216	472.569739928832	0
8	3219	472.891310510263	0
8	3228	473.48336394408	0
8	3233	473.804934525511	0
8	3240	474.126505106942	0
8	3245	474.448075688373	0
8	3250	474.769646269804	0
8	3253	475.091216851235	0
8	3258	475.412787432666	0
8	3261	475.734358014097	0
8	3264	476.055928595528	0
8	3269	477.235639444908	0
8	3278	478.295944809874	0
8	3282	478.860726219516	0
8	3285	479.182296800947	0
8	3292	479.982750362494	0
8	3295	480.304320943925	0
8	3300	481.085777691427	0
8	3305	481.952018714749	0
8	3310	482.341562594218	0
8	3315	483.474549054638	0
8	3322	483.841536770614	0
8	3325	484.163107352045	0
8	3330	484.779155189188	0
8	3335	485.786410427901	0
8	3340	489.564625314801	0
8	3345	490.241016142278	0
8	3350	490.753925599502	0
8	3355	491.163866335039	0
8	3362	492.832642262602	0
8	3365	493.154212844033	0
8	3372	493.769940177551	0
8	3375	494.091510758982	0
8	3380	494.824735935145	0
8	3385	495.40088297213	0
8	3390	497.500488195429	0
8	3399	498.537538965613	0
8	3402	498.859109547044	0
8	3405	499.180680128475	0
8	3410	500.013124614779	0
8	3417	501.535657611167	0
8	3420	501.857228192598	0
8	3425	502.580456272746	0
8	3430	504.335201466596	0
8	3435	505.753658056781	0
8	3442	507.321764803142	0
8	3447	507.643335384573	0
8	3450	507.964905966004	0
8	3459	508.528851106891	0
8	3462	508.850421688322	0
8	3465	509.171992269753	0
8	3470	509.624774995349	0
8	3475	510.029909193529	0
8	3480	510.360199940896	0
8	3485	510.850689171767	0
8	3490	511.27884401761	0
8	3497	511.969784964627	0
8	3502	512.291355546058	0
8	3505	512.612926127489	0
8	3514	512.999540942587	0
8	3517	513.321111524018	0
8	3520	513.642682105449	0
8	3525	514.836029547205	0
8	3531	515.870353587222	0
8	3536	516.248146981455	0
8	3541	516.731521034938	0
8	3546	518.783553670421	0
8	3553	520.49249810326	0
8	3556	520.814068684691	0
8	3561	521.219553274747	0
8	3566	521.564038194242	0
8	3573	522.110324633547	0
8	3576	522.431895214978	0
8	3581	522.784910458325	0
8	3590	523.934307880728	0
8	3595	524.255878462159	0
8	3598	524.57744904359	0
8	3601	524.899019625021	0
8	3606	525.966787423021	0
8	3613	526.39595403587	0
8	3616	526.717524617301	0
8	3621	527.159099260396	0
8	3626	527.89645543686	0
8	3633	528.415258847683	0
8	3636	528.736829429114	0
8	3645	529.393386741572	0
8	3652	529.714957323003	0
8	3655	530.036527904434	0
8	3660	530.358098485865	0
8	3667	530.679669067296	0
8	3672	531.001239648727	0
8	3675	531.322810230158	0
8	3680	531.644380811589	0
8	3683	531.96595139302	0
8	3686	532.287521974451	0
8	3695	533.25629708989	0
8	3698	533.577867671321	0
8	3701	533.899438252752	0
8	3706	534.987046496291	0
8	3711	535.354219597417	0
8	3716	537.091121904093	0
8	3721	540.032365129038	0
8	3726	540.648991497715	0
8	3733	541.843337595104	0
8	3736	542.164908176535	0
8	3741	543.617010572552	0
8	3746	545.236307094219	0
8	3755	545.734083129109	0
8	3762	546.05565371054	0
8	3765	546.377224291971	0
8	3768	546.698794873402	0
8	3771	547.020365454833	0
8	3776	547.570499436298	0
8	3784	548.185187928652	0
8	3787	548.506758510083	0
8	3794	549.158286695935	0
8	3797	549.479857277366	0
8	3804	550.736719439206	0
8	3807	551.058290020637	0
8	3814	551.463905634263	0
8	3817	551.785476215694	0
8	3822	552.617056808737	0
8	3829	553.892367990521	0
8	3834	554.213938571952	0
8	3837	554.535509153383	0
8	3842	555.405353641921	0
8	3847	556.838654026462	0
8	3852	559.021171680419	0
8	3857	560.108247441915	0
8	3862	560.662702867104	0
8	3867	562.091968605587	0
8	3872	562.443433200476	0
8	3879	563.032756288168	0
8	3882	563.354326869599	0
8	3889	563.909598930555	0
8	3892	564.231169511986	0
8	3905	565.571240603321	0
8	3912	565.892811184752	0
8	3917	566.214381766183	0
8	3924	566.535952347614	0
8	3932	566.857522929045	0
8	3936	567.179093510476	0
8	3941	567.500664091907	0
8	3948	567.822234673338	0
8	3951	568.143805254769	0
8	3954	568.4653758362	0
8	3959	569.80619919699	0
8	3964	570.397775095628	0
8	3969	570.879956941169	0
8	3974	571.932869356761	0
8	3979	572.318672035598	0
8	3984	573.409183368989	0
8	3989	573.765442281624	0
8	3994	574.977346883272	0
8	4001	576.044056759442	0
8	4004	576.365627340873	0
8	4009	578.417723893068	0
8	4014	579.00562959282	0
8	4019	580.876753390976	0
8	4024	582.217746995487	0
8	4029	583.533743469126	0
8	4034	584.424034794055	0
8	4039	585.354076105298	0
8	4045	586.70453561114	0
8	4052	587.327006128547	0
8	4057	587.648576709978	0
8	4062	587.970147291409	0
8	4067	588.29171787284	0
8	4072	588.613288454271	0
8	4075	588.934859035702	0
8	4080	589.305251388571	0
8	4085	589.66857380387	0
8	4094	590.168421422948	0
8	4097	590.489992004379	0
8	4102	590.81156258581	0
8	4105	591.133133167241	0
8	4110	593.582613293369	0
8	4115	594.335411228208	0
8	4120	594.941973918258	0
8	4125	595.377342193128	0
8	4132	597.208411414537	0
8	4135	597.529981995968	0
8	4140	597.909466156748	0
8	4147	598.257742950531	0
8	4152	598.579313531962	0
8	4159	598.900884113393	0
8	4162	599.222454694824	0
8	4165	599.544025276255	0
8	4170	600.200030179821	0
8	4177	601.166729619884	0
8	4180	601.488300201315	0
8	4185	602.56859055661	0
8	4192	606.376415964686	0
8	4197	606.697986546117	0
8	4202	607.019557127548	0
8	4205	607.341127708979	0
8	4210	608.525196738653	0
8	4217	609.626909019361	0
8	4220	609.948479600792	0
8	4225	610.787079249811	0
8	4230	611.118249547043	0
8	4237	611.551732984115	0
8	4242	611.873303565546	0
8	4247	612.194874146977	0
8	4254	612.516444728408	0
8	4257	612.838015309839	0
8	4260	613.15958589127	0
8	4265	614.445518115192	0
8	4276	615.947323059309	0
8	4283	616.26889364074	0
8	4290	616.590464222171	0
8	4297	616.912034803602	0
8	4302	617.233605385033	0
8	4313	617.798386794675	0
8	4316	618.119957376106	0
8	4320	618.441527957537	0
8	4325	618.763098538968	0
8	4328	619.084669120399	0
8	4333	620.204500883796	0
8	4338	620.644247432903	0
8	4343	621.066713900319	0
8	4348	622.775941690774	0
8	4353	623.211437446217	0
8	4358	624.150259012376	0
8	4365	625.002793125364	0
8	4368	625.324363706795	0
8	4373	628.513127340603	0
8	4380	629.226431218788	0
8	4385	629.548001800219	0
8	4388	629.86957238165	0
8	4393	630.808217145761	0
8	4398	631.18938435252	0
8	4403	631.647637502567	0
8	4408	632.348358868997	0
8	4413	633.973849326025	0
8	4418	634.595691161976	0
8	4423	636.744286468599	0
8	4428	637.494441923371	0
8	4441	639.544807986982	0
8	4444	639.866378568413	0
8	4449	640.187949149844	0
8	4452	640.509519731275	0
8	4456	640.831090312706	0
8	4461	641.886372419079	0
8	4468	644.299342606656	0
8	4471	644.620913188087	0
8	4476	645.109515225213	0
8	4483	646.265740256247	0
8	4486	646.587310837678	0
8	4491	648.011577678284	0
8	4498	648.724783986739	0
8	4501	649.04635456817	0
8	4508	650.527547461214	0
8	4511	650.849118042645	0
8	4518	652.399814325852	0
8	4523	652.721384907283	0
8	4528	653.042955488714	0
8	4531	653.364526070145	0
8	4538	654.376946123668	0
8	4541	654.698516705099	0
8	4546	656.015367417119	0
8	4551	657.236109108052	0
8	4558	658.308530637303	0
8	4564	658.873312046945	0
8	4569	659.194882628376	0
8	4572	659.516453209807	0
8	4577	660.449442848369	0
8	4582	660.93977831396	0
8	4589	661.643532109905	0
8	4592	661.965102691336	0
8	4597	663.955368126903	0
8	4602	665.393922021319	0
8	4607	667.214289990702	0
8	4614	668.202425037752	0
8	4617	668.523995619183	0
8	4622	669.91772117433	0
8	4627	672.525838587185	0
8	4636	673.126504890398	0
8	4641	673.448075471829	0
8	4648	673.76964605326	0
8	4651	674.091216634691	0
8	4656	674.412787216122	0
8	4659	674.734357797553	0
8	4664	675.055928378984	0
8	4667	675.377498960415	0
8	4672	676.991452000599	0
8	4677	679.038475129598	0
8	4682	680.446638917544	0
8	4687	680.937807268009	0
8	4692	681.298627022817	0
8	4697	681.96959085593	0
8	4702	682.491020092745	0
8	4707	683.682301442242	0
8	4712	684.566290579246	0
8	4717	686.736881121272	0
8	4724	687.218309750131	0
8	4727	687.539880331562	0
8	4736	688.129398889735	0
8	4741	688.450969471166	0
8	4746	688.772540052597	0
8	4749	689.094110634028	0
8	4752	689.415681215459	0
8	4759	692.573425974392	0
8	4762	692.894996555823	0
8	4767	693.228985691961	0
8	4774	693.922632493339	0
8	4779	694.24420307477	0
8	4782	694.565773656201	0
8	4787	695.237600102956	0
8	4792	696.013335460445	0
8	4799	696.36530342254	0
8	4802	696.686874003971	0
8	4807	697.497685066207	0
8	4813	698.334743341767	0
8	4820	698.767843617181	0
8	4823	699.089414198612	0
8	4830	699.482961048741	0
8	4835	699.804531630172	0
8	4844	700.126102211603	0
8	4849	700.447672793034	0
8	4852	700.769243374465	0
8	4855	701.090813955896	0
8	4858	701.412384537327	0
8	4865	702.678842321409	0
8	4868	703.00041290284	0
8	4875	703.368208858198	0
8	4878	703.689779439629	0
8	4883	704.299418451327	0
8	4892	706.154122079635	0
8	4895	706.475692661066	0
8	4898	706.797263242497	0
8	4907	707.213844431928	0
8	4910	707.535415013359	0
8	4913	707.85698559479	0
8	4920	708.956612245878	0
8	4923	709.278182827309	0
8	4930	710.100789573672	0
8	4933	710.422360155103	0
8	4938	711.363178439795	0
8	4943	711.81677168348	0
8	4950	712.405408123714	0
8	4953	712.726978705145	0
8	4962	713.200538958064	0
8	4967	713.522109539495	0
8	4972	713.843680120926	0
8	4975	714.165250702357	0
8	4982	714.486821283788	0
8	4985	714.808391865219	0
8	4988	715.12996244665	0
8	4993	715.529286399462	0
8	4998	716.24792264806	0
8	5003	716.819226074386	0
8	5008	717.448697025451	0
8	5013	718.194736033746	0
8	5018	719.185760689138	0
8	5023	719.598394755371	0
8	5028	719.978805791573	0
8	5033	721.394223524197	0
8	5038	721.775194801375	0
8	5043	722.847696915397	0
8	5048	723.538987681504	0
8	5057	726.145542823816	0
8	5060	726.467113405247	0
8	5064	727.031894814889	0
8	5069	727.462116376038	0
8	5074	728.876543595869	0
8	5079	730.802111413751	0
8	5084	731.355497145148	0
8	5091	735.185647423015	0
8	5098	735.507218004446	0
8	5101	735.828788585877	0
8	5106	736.150359167308	0
8	5111	736.471929748739	0
8	5114	736.79350033017	0
8	5119	738.316172140798	0
8	5124	738.747333526595	0
8	5131	740.26700832086	0
8	5138	740.588578902291	0
8	5143	740.910149483722	0
8	5146	741.231720065153	0
8	5151	741.553290646584	0
8	5156	741.874861228015	0
8	5159	742.196431809446	0
8	5166	742.732429819559	0
8	5171	743.05400040099	0
8	5176	743.375570982421	0
8	5181	743.697141563852	0
8	5186	744.018712145283	0
8	5189	744.340282726714	0
8	5196	745.2295807633	0
8	5199	745.551151344731	0
8	5204	746.675100473065	0
8	5209	747.304280074131	0
8	5214	747.732661648162	0
8	5219	748.416563517631	0
8	5224	748.840572088828	0
8	5229	749.270917727073	0
8	5236	750.623802642715	0
8	5241	750.945373224146	0
8	5244	751.266943805577	0
8	5249	754.379791631544	0
8	5256	755.054798299481	0
8	5259	755.376368880912	0
8	5264	755.700459545865	0
8	5271	756.530265372379	0
8	5274	756.85183595381	0
8	5279	757.215063720228	0
8	5284	759.043105579348	0
8	5291	759.663042476963	0
8	5294	759.984613058394	0
8	5301	760.550213692006	0
8	5304	760.871784273437	0
8	5311	761.647229827227	0
8	5319	762.212011236869	0
8	5324	762.5335818183	0
8	5329	762.855152399731	0
8	5332	763.176722981162	0
8	5337	763.498293562593	0
8	5340	763.819864144024	0
8	5345	765.371545061643	0
8	5352	766.84797006073	0
8	5355	767.169540642161	0
8	5360	770.108224620393	0
8	5365	770.886352079825	0
8	5370	771.294788958567	0
8	5375	771.777763773027	0
8	5382	772.316076898268	0
8	5385	772.637647479699	0
8	5390	774.136156088773	0
8	5395	775.090955752793	0
8	5402	776.396634030106	0
8	5407	776.718204611537	0
8	5410	777.039775192968	0
8	5415	779.113068217244	0
8	5420	779.752681667723	0
8	5427	780.87812540064	0
8	5432	781.199695982071	0
8	5437	781.521266563502	0
8	5440	781.842837144933	0
8	5445	783.999820425248	0
8	5450	784.365026733955	0
8	5455	785.812161500238	0
8	5460	786.423352456094	0
8	5469	786.908196168304	0
8	5472	787.229766749735	0
8	5475	787.551337331166	0
8	5480	788.288803541818	0
8	5489	789.78921366405	0
8	5494	790.110784245481	0
8	5497	790.432354826912	0
8	5500	790.753925408343	0
8	5505	791.416052422661	0
8	5510	792.109705539259	0
8	5515	792.584074975157	0
8	5520	792.961450125181	0
8	5525	794.557715251899	0
8	5530	795.452020214771	0
8	5537	795.879536461224	0
8	5544	796.201107042655	0
8	5547	796.522677624086	0
8	5552	796.844248205517	0
8	5555	797.165818786948	0
8	5560	797.578016597473	0
8	5566	798.618566561155	0
8	5571	800.034029558192	0
8	5576	800.515130122036	0
8	5583	801.111903498038	0
8	5586	801.433474079469	0
8	5591	802.457443737668	0
8	5596	803.319002214537	0
8	5601	803.694908365108	0
8	5606	805.257872104971	0
8	5613	806.140205016244	0
8	5618	806.461775597675	0
8	5623	806.783346179106	0
8	5626	807.104916760537	0
8	5631	807.823426521334	0
8	5638	809.788641274885	0
8	5643	810.110211856316	0
8	5646	810.431782437747	0
8	5651	810.916304934316	0
8	5656	812.555562951593	0
8	5661	813.180312382568	0
8	5666	814.363346221669	0
8	5673	815.556139841262	0
8	5678	815.877710422693	0
8	5681	816.199281004124	0
8	5686	817.155068928102	0
8	5691	818.049483149175	0
8	5696	819.412639269998	0
8	5703	819.774653108181	0
8	5706	820.096223689612	0
8	5711	822.317603234002	0
8	5718	822.866672067934	0
8	5721	823.188242649365	0
8	5726	823.675963634361	0
8	5731	824.205665095781	0
8	5736	824.614257625133	0
8	5741	826.43284313187	0
8	5746	827.373335602694	0
8	5751	827.925256855372	0
8	5756	828.624449484646	0
8	5761	829.117214528286	0
8	5770	829.643308042504	0
8	5773	829.964878623935	0
8	5776	830.286449205366	0
8	5781	831.577059570753	0
8	5786	832.22982344992	0
8	5793	832.733859320214	0
8	5798	833.055429901645	0
8	5803	833.377000483076	0
8	5806	833.698571064507	0
8	5811	834.550806450233	0
8	5817	836.090267949625	0
8	5822	836.764840448457	0
8	5827	838.135798968085	0
8	5834	838.944948795021	0
8	5837	839.266519376452	0
8	5842	839.946113980958	0
8	5847	841.469344885752	0
8	5852	842.54148741078	0
8	5857	844.019909052808	0
8	5866	844.495436265736	0
8	5869	844.817006847167	0
8	5872	845.138577428598	0
8	5877	845.784476829847	0
8	5882	846.795889128657	0
8	5887	847.567825999198	0
8	5894	847.911529746298	0
8	5897	848.233100327729	0
8	5904	848.931381148544	0
8	5907	849.252951729975	0
8	5914	849.851638070943	0
8	5919	850.173208652374	0
8	5924	850.494779233805	0
8	5927	850.816349815236	0
8	5934	853.30815157369	0
8	5939	853.629722155121	0
8	5944	853.951292736552	0
8	5947	854.272863317983	0
8	5952	855.068023606325	0
8	5957	855.623234059522	0
8	5964	856.504273971493	0
8	5967	856.825844552924	0
8	5974	858.357255095385	0
8	5977	858.678825676816	0
8	5984	859.952604159819	0
8	5989	860.27417474125	0
8	5994	860.595745322681	0
8	5997	860.917315904112	0
8	6002	863.000509617164	0
8	6007	863.79446216342	0
8	6012	865.885809107406	0
8	6017	866.744467933492	0
8	6024	867.079175352565	0
8	6027	867.400745933996	0
8	6032	869.27269038467	0
8	6037	870.225588858749	0
8	6042	871.424118724062	0
8	6049	872.071898696993	0
8	6052	872.393469278424	0
8	6057	872.743025958904	0
8	6064	874.07146812042	0
8	6072	874.636249530062	0
8	6077	874.957820111493	0
8	6082	875.279390692924	0
8	6087	875.600961274355	0
8	6092	875.922531855786	0
8	6095	876.244102437217	0
8	6100	876.565673018648	0
8	6103	876.887243600079	0
8	6108	877.760704587584	0
8	6115	878.603982729538	0
8	6118	878.925553310969	0
8	6123	880.038867919943	0
8	6130	880.732773122606	0
8	6135	881.054343704037	0
8	6138	881.375914285468	0
8	6143	882.027447781522	0
8	6148	882.427584435843	0
8	6155	883.396974004771	0
8	6162	883.718544586202	0
8	6165	884.040115167633	0
8	6170	884.361685749064	0
8	6175	884.683256330495	0
8	6178	885.004826911926	0
8	6183	885.485173340565	0
8	6190	886.266688322057	0
8	6195	886.588258903488	0
8	6202	886.909829484919	0
8	6205	887.23140006635	0
8	6210	887.552970647781	0
8	6215	887.874541229212	0
8	6218	888.196111810643	0
8	6223	889.760896036596	0
8	6230	890.950119801579	0
8	6233	891.27169038301	0
8	6238	891.631134866349	0
8	6243	892.668458644025	0
8	6248	896.081583901085	0
8	6253	896.622816205598	0
8	6258	897.553907519536	0
8	6265	898.793213596624	0
8	6268	899.114784178055	0
8	6273	899.639565944314	0
8	6284	900.975179775137	0
8	6287	901.296750356568	0
8	6290	901.618320937999	0
8	6293	901.93989151943	0
8	6302	903.836109230638	0
8	6305	904.157679812069	0
8	6312	904.4792503935	0
8	6315	904.800820974931	0
8	6321	905.365602384573	0
8	6324	905.687172966004	0
8	6329	906.741585418304	0
8	6338	908.661055535337	0
8	6341	908.982626116768	0
8	6344	909.304196698199	0
8	6349	910.615709830999	0
8	6354	911.211955918696	0
8	6361	911.708493341792	0
8	6364	912.030063923223	0
8	6371	913.513114305297	0
8	6376	913.834684886728	0
8	6381	914.156255468159	0
8	6384	914.47782604959	0
8	6389	915.449017730857	0
8	6396	916.305726041044	0
8	6403	916.627296622475	0
8	6408	916.948867203906	0
8	6411	917.270437785337	0
8	6414	917.592008366768	0
8	6419	919.783719400225	0
8	6424	921.377845659467	0
8	6433	922.532058266178	0
8	6436	922.853628847609	0
8	6441	923.17519942904	0
8	6444	923.496770010471	0
8	6451	923.843773443755	0
8	6460	924.165344025186	0
8	6463	924.486914606617	0
8	6466	924.808485188048	0
8	6469	925.130055769479	0
8	6474	925.726058252194	0
8	6481	927.090568080111	0
8	6486	927.412138661542	0
8	6491	927.733709242973	0
8	6496	928.055279824404	0
8	6503	928.376850405835	0
8	6506	928.698420987266	0
8	6509	929.019991568697	0
8	6518	930.88010287732	0
8	6521	931.201673458751	0
8	6526	931.523244040182	0
8	6529	931.844814621613	0
8	6534	932.282158559117	0
8	6539	933.346869309725	0
8	6544	933.868168272061	0
8	6549	934.189814634888	0
8	6558	934.738447423214	0
8	6567	935.060018004645	0
8	6570	935.381588586076	0
8	6576	935.946369995718	0
8	6581	936.267940577149	0
8	6586	936.969837874085	0
8	6591	937.460223505315	0
8	6596	937.930533091844	0
8	6601	938.544567195486	0
8	6606	940.176193956621	0
8	6611	940.743176631156	0
8	6616	941.598810847446	0
8	6621	942.185497464305	0
8	6626	943.221487940177	0
8	6631	943.80586283224	0
8	6638	944.778439901334	0
8	6643	945.100010482765	0
8	6646	945.421581064196	0
8	6651	946.033858353992	0
8	6662	946.957943072723	0
8	6665	947.279513654154	0
8	6670	947.601084235585	0
8	6675	947.922654817016	0
8	6678	948.244225398447	0
8	6683	948.565795979878	0
8	6686	948.887366561309	0
8	6693	949.551106792273	0
8	6702	949.872677373704	0
8	6705	950.194247955135	0
8	6710	950.515818536566	0
8	6713	950.837389117997	0
8	6718	951.158959699428	0
8	6725	951.480530280859	0
8	6730	951.80210086229	0
8	6733	952.123671443721	0
8	6736	952.445242025152	0
8	6741	953.75998984994	0
8	6746	955.839818930797	0
8	6753	956.469384512561	0
8	6756	956.790955093992	0
8	6761	957.889082638787	0
8	6766	959.238842658616	0
8	6771	959.57083864671	0
8	6776	961.697492644913	0
8	6783	962.660225024397	0
8	6786	962.981795605828	0
8	6791	965.233594461374	0
8	6796	965.584820158135	0
8	6801	966.487715394666	0
8	6808	967.99903694042	0
8	6811	968.320607521851	0
8	6816	969.946640390878	0
8	6821	971.697353027144	0
8	6827	972.520388869713	0
8	6834	972.944865344688	0
8	6837	973.266435926119	0
8	6842	975.842871865663	0
8	6851	976.247939284163	0
8	6854	976.569509865594	0
8	6857	976.891080447025	0
8	6864	978.439124947425	0
8	6867	978.760695528856	0
8	6874	980.617167586843	0
8	6877	980.938738168274	0
8	6882	981.735242338443	0
8	6887	982.364212306189	0
8	6892	983.021535614904	0
8	6899	983.887073184409	0
8	6902	984.20864376584	0
8	6909	985.182615178224	0
8	6914	985.504185759655	0
8	6919	985.825756341086	0
8	6922	986.147326922517	0
8	6927	988.373442637511	0
8	6936	990.251967423099	0
8	6941	990.57353800453	0
8	6944	990.895108585961	0
8	6947	991.216679167392	0
8	6952	993.161160998649	0
8	6957	993.791407253858	0
8	6962	994.307561822655	0
8	6967	995.031275013577	0
8	6974	995.465524832154	0
8	6977	995.787095413585	0
8	6982	996.359762306887	0
8	6987	996.820935680989	0
8	6992	997.499544057143	0
8	6997	999.720550499754	0

