version 2
run General-456-20240201-11:04:32-40057
attr configname General
attr datetime 20240201-11:04:32
attr experiment General
attr inifile main.ini
attr iterationvars "$0=1.0, $1=3.5, $2=50"
attr iterationvarsf 1.0,3.5,50-
attr measurement "$0=1.0, $1=3.5, $2=50"
attr network Rete
attr processid 40057
attr repetition 16
attr replication #16
attr resultdir results
attr runnumber 456
attr seedset 456
param Rete.lambda 1.0
param Rete.a 0.3s
param Rete.b 3.5s
param Rete.c 0.1s
param Rete.d 0.3s
param Rete.mu 3.0
param Rete.source2.interArrivalTime exponential(1s/lambda)
param Rete.source2.jobServiceTime exponential(1s/mu)
param Rete.source2.deadline uniform(a,b)
param Rete.server2.j 50
param Rete.server2.V uniform(c,d)

vector 0 Rete.passiveQueue queueLength:vector ETV
attr interpolationmode sample-hold
attr title "queue length, vector"
vector 1 Rete.sink lifeTime:vector ETV
attr interpolationmode none
attr title "lifetime of arrived jobs, vector"
attr unit s
vector 2 Rete.sink totalQueueingTime:vector ETV
attr interpolationmode none
attr title "the total time spent in queues by arrived jobs, vector"
attr unit s
vector 3 Rete.sink queuesVisited:vector ETV
attr interpolationmode none
attr title "the total number of queues visited by arrived jobs, vector"
vector 4 Rete.sink totalServiceTime:vector ETV
attr interpolationmode none
attr title "the total time spent  by arrived jobs, vector"
attr unit s
vector 5 Rete.sink totalDelayTime:vector ETV
attr interpolationmode none
attr title "the total time spent in delay nodes by arrived jobs, vector"
attr unit s
vector 6 Rete.sink delaysVisited:vector ETV
attr interpolationmode none
attr title "the total number of delays visited by arrived jobs, vector"
vector 7 Rete.sink generation:vector ETV
attr interpolationmode none
attr title "the generation of the arrived jobs, vector"
vector 8 Rete.passiveQueue queueingTime:vector ETV
attr interpolationmode none
attr title "queueing time at dequeue, vector"
attr unit s
0	0	0	0
0	130	19.332827223257	1
0	131	19.360397534505	0
0	215	31.541671719112	1
0	216	31.592791636597	0
0	411	74.790358685001	1
0	412	74.84117246146	0
0	431	79.208620736736	1
0	432	79.225980099338	0
0	446	84.360789674805	1
0	447	84.376561732807	0
0	486	92.887294144737	1
0	488	92.918714824719	2
0	489	92.935664178449	1
0	492	92.995001179162	0
0	677	131.913408991474	1
0	678	131.923192260506	0
0	737	142.56632253695	1
0	738	142.601474598631	0
0	803	152.934828154729	1
0	804	152.978252889535	0
0	873	175.875497938497	1
0	874	175.880742721123	0
0	988	205.303324243071	1
0	989	205.334560697639	0
0	1005	206.999219303473	1
0	1006	207.04565671458	0
0	1109	231.655377887774	1
0	1111	231.666841782944	2
0	1112	231.67465448198	1
0	1115	231.733991482693	0
0	1119	231.786232277805	1
0	1120	231.793328483406	0
0	1159	239.975128737374	1
0	1160	240.01400302158	0
0	1219	252.208775564872	1
0	1220	252.236212772021	0
0	1229	253.70593375968	1
0	1230	253.757480878624	0
0	1325	271.838643974028	1
0	1326	271.846128512574	0
0	1485	295.989159359316	1
0	1486	296.034638594119	0
0	1546	307.727212929633	1
0	1547	307.732961294054	0
0	1551	307.734967809527	1
0	1552	307.792298294767	0
0	1777	351.857158243578	1
0	1778	351.87398284746	0
0	1782	351.911273496402	1
0	1783	351.933319848173	0
0	1932	378.17552445901	1
0	1933	378.182223036568	0
0	1997	406.249919483838	1
0	1998	406.279507591425	0
0	2009	406.763159694746	1
0	2010	406.851612332202	0
0	2143	434.387462097835	1
0	2144	434.395589697561	0
0	2203	442.050578716492	1
0	2204	442.10853469695	0
0	2260	449.818837883506	1
0	2261	449.883369834203	0
0	2289	459.216002083914	1
0	2290	459.229142710237	0
0	2745	558.187905337311	1
0	2746	558.203274152881	0
0	2856	577.64325073794	1
0	2857	577.66426848653	0
0	2931	589.952277694413	1
0	2932	589.956856935562	0
0	3011	612.46969743717	1
0	3014	612.650397318044	0
0	3132	636.811172470007	1
0	3133	636.867665963363	0
0	3273	670.17743987224	1
0	3274	670.189169328177	0
0	3363	681.880729681655	1
0	3364	681.934091360202	0
0	3549	730.222756572684	1
0	3550	730.280863153594	0
0	3619	746.06936396804	1
0	3620	746.097140616837	0
0	3724	760.309821837288	1
0	3725	760.317025045085	0
0	3825	781.327302145017	1
0	3826	781.382398908225	0
0	3850	785.726262129754	1
0	3851	785.74825345634	0
0	4176	854.696211662104	1
0	4177	854.708561751745	0
0	4407	896.943069982435	1
0	4408	896.990470003267	0
0	4633	944.433016001224	1
0	4634	944.482167764543	0
0	4658	947.26767111072	1
0	4659	947.271115932714	0
0	4753	963.329908269438	1
0	4754	963.380632773019	0
0	4784	969.17707522289	1
0	4785	969.216939539204	0
0	4924	999.784567002303	1
0	4925	999.834660758059	0
1	5	0.345361658553	0.059337000713
1	10	1.876188297215	0.059337000713
1	15	2.283688643116	0.059337000713
1	20	3.93667827883	0.059337000713
1	25	4.272380195785	0.059337000713
1	30	5.254886668313	0.059337000713
1	35	5.422896846798	0.059337000713
1	40	6.34952491431	0.059337000713
1	45	6.723567816294	0.059337000713
1	50	8.892513223915	0.059337000713
1	55	9.021893058323	0.059337000713
1	60	10.445338920578	0.059337000713
1	65	12.147199687933	0.059337000713
1	70	12.346999165459	0.059337000713
1	75	12.526832095752	0.059337000713
1	80	12.689550239815	0.059337000713
1	85	13.248176266181	0.059337000713
1	90	13.820308967779	0.059337000713
1	95	14.222894490646	0.059337000713
1	100	14.709470768776	0.059337000713
1	105	15.840984683177	0.059337000713
1	110	16.698322466778	0.059337000713
1	115	17.945801114292	0.059337000713
1	120	18.103731404466	0.059337000713
1	125	18.200144853757	0.059337000713
1	132	19.360397534505	0.059337000713
1	135	19.419734535218	0.086907311961
1	140	20.024788440096	0.059337000713
1	145	20.59858692769	0.059337000713
1	150	21.442555017453	0.059337000713
1	155	22.267320612754	0.059337000713
1	160	23.304934744397	0.059337000713
1	165	23.496581837268	0.059337000713
1	170	24.781550114395	0.059337000713
1	175	26.49261414679	0.059337000713
1	180	27.634146739215	0.059337000713
1	185	30.166018930445	0.059337000713
1	190	30.365588959217	0.059337000713
1	195	30.888211076528	0.059337000713
1	200	31.013954006282	0.059337000713
1	205	31.235624676938	0.059337000713
1	210	31.51366590364	0.059337000713
1	217	31.592791636597	0.059337000713
1	220	31.65212863731	0.110456918198
1	225	32.333098437681	0.059337000713
1	230	32.779492566802	0.059337000713
1	235	33.941647322662	0.059337000713
1	240	34.099520292521	0.059337000713
1	245	34.384736462353	0.059337000713
1	250	35.167202532511	0.059337000713
1	256	36.211217003272	0.059337000713
1	261	38.156851286535	0.059337000713
1	266	38.235385160049	0.059337000713
1	271	38.45879395135	0.059337000713
1	276	40.34625326459	0.059337000713
1	281	40.490855377058	0.059337000713
1	286	43.298638144742	0.059337000713
1	291	43.538919668717	0.059337000713
1	296	44.093513695467	0.059337000713
1	301	47.711213563459	0.059337000713
1	306	49.602729583895	0.059337000713
1	311	51.556982923126	0.059337000713
1	316	53.64004840129	0.059337000713
1	321	54.403157472784	0.059337000713
1	326	54.561519982754	0.059337000713
1	331	55.131491734829	0.059337000713
1	336	60.043359007701	0.059337000713
1	341	60.250620061441	0.059337000713
1	346	63.927116159518	0.059337000713
1	351	64.267181218409	0.059337000713
1	356	64.336149111122	0.059337000713
1	361	65.322774690458	0.059337000713
1	366	65.616701592444	0.059337000713
1	371	66.056301528644	0.059337000713
1	376	68.47671460562	0.059337000713
1	381	69.78403297953	0.059337000713
1	386	70.285346782674	0.059337000713
1	391	71.099505737249	0.059337000713
1	396	71.312670890534	0.059337000713
1	401	74.166729148662	0.059337000713
1	406	74.674473473691	0.059337000713
1	413	74.84117246146	0.059337000713
1	416	74.900509462173	0.110150777172
1	421	77.115231533965	0.059337000713
1	426	79.029923030733	0.059337000713
1	433	79.225980099338	0.059337000713
1	436	79.285317100051	0.076696363315
1	441	80.17000666142	0.059337000713
1	448	84.376561732807	0.059337000713
1	451	84.43589873352	0.075109058715
1	456	85.956865017714	0.059337000713
1	461	87.01642164904	0.059337000713
1	466	88.474542935358	0.059337000713
1	471	88.931384840953	0.059337000713
1	476	90.981989844665	0.059337000713
1	481	92.569518415465	0.059337000713
1	490	92.935664178449	0.059337000713
1	493	92.995001179162	0.107707034425
1	496	93.054338179875	0.135623355156
1	501	93.632511200538	0.059337000713
1	507	97.36219328662	0.059337000713
1	512	97.464015769211	0.059337000713
1	517	98.985439786746	0.059337000713
1	522	99.122489295898	0.059337000713
1	527	100.078788877073	0.059337000713
1	532	101.789286611573	0.059337000713
1	537	104.221973809656	0.059337000713
1	542	105.146765042515	0.059337000713
1	547	105.220213309826	0.059337000713
1	552	108.597973855663	0.059337000713
1	557	108.822118919671	0.059337000713
1	562	110.003680660409	0.059337000713
1	567	110.460059042699	0.059337000713
1	572	114.167432317354	0.059337000713
1	577	114.401586109434	0.059337000713
1	582	115.129939281663	0.059337000713
1	587	117.483285038329	0.059337000713
1	592	118.227461663522	0.059337000713
1	597	119.826155873428	0.059337000713
1	602	119.95165433174	0.059337000713
1	607	120.756290819648	0.059337000713
1	612	121.159460645853	0.059337000713
1	617	121.917437505972	0.059337000713
1	622	122.235463920376	0.059337000713
1	627	123.782075437629	0.059337000713
1	632	125.821226346969	0.059337000713
1	637	126.196436000182	0.059337000713
1	642	126.287344123762	0.059337000713
1	647	126.789607978831	0.059337000713
1	652	127.440695330245	0.059337000713
1	657	128.105425613569	0.059337000713
1	662	129.924288095855	0.059337000713
1	667	130.170988474105	0.059337000713
1	672	130.88390579304	0.059337000713
1	679	131.923192260506	0.059337000713
1	682	131.982529261219	0.069120269745
1	687	134.046520401516	0.059337000713
1	692	134.996515722385	0.059337000713
1	697	135.874030710685	0.059337000713
1	702	136.398822119859	0.059337000713
1	707	136.490639819908	0.059337000713
1	712	137.737599924263	0.059337000713
1	717	139.516939907815	0.059337000713
1	722	139.609695267862	0.059337000713
1	727	140.738769151401	0.059337000713
1	732	141.219783824238	0.059337000713
1	739	142.601474598631	0.059337000713
1	742	142.660811599344	0.094489062394
1	747	142.947041966771	0.059337000713
1	752	143.433670564354	0.059337000713
1	758	144.848212801301	0.059337000713
1	763	145.001490866341	0.059337000713
1	768	146.968367365179	0.059337000713
1	773	147.22013230341	0.059337000713
1	778	148.215025182911	0.059337000713
1	783	149.793996567343	0.059337000713
1	788	150.393761316192	0.059337000713
1	793	151.659907354412	0.059337000713
1	798	152.317180785757	0.059337000713
1	805	152.978252889535	0.059337000713
1	808	153.037589890248	0.102761735519
1	813	156.917779404834	0.059337000713
1	818	157.433349877034	0.059337000713
1	823	158.865959065274	0.059337000713
1	828	164.248986237364	0.059337000713
1	833	164.344188332943	0.059337000713
1	838	164.703537189974	0.059337000713
1	843	165.474206952895	0.059337000713
1	848	166.157726396294	0.059337000713
1	853	167.290725290341	0.059337000713
1	858	173.413981645522	0.059337000713
1	863	174.761750162656	0.059337000713
1	868	174.893072557358	0.059337000713
1	875	175.880742721123	0.059337000713
1	878	175.940079721836	0.064581783339
1	883	178.0828449407	0.059337000713
1	888	178.227283460781	0.059337000713
1	893	179.836024000181	0.059337000713
1	898	180.963790547278	0.059337000713
1	903	181.771098596968	0.059337000713
1	908	182.524110041778	0.059337000713
1	913	184.568351258859	0.059337000713
1	918	186.998126814921	0.059337000713
1	923	187.524412463569	0.059337000713
1	928	188.732903426846	0.059337000713
1	933	188.802486208767	0.059337000713
1	938	189.462902151985	0.059337000713
1	943	189.615061481132	0.059337000713
1	948	190.111577114036	0.059337000713
1	953	196.09755960596	0.059337000713
1	958	197.249822240606	0.059337000713
1	963	197.469092388302	0.059337000713
1	968	197.601214572603	0.059337000713
1	973	199.789441349596	0.059337000713
1	978	203.368012516307	0.059337000713
1	983	204.411701366891	0.059337000713
1	990	205.334560697639	0.059337000713
1	993	205.393897698352	0.090573455281
1	998	205.901592224262	0.059337000713
1	1003	206.915348439981	0.059337000713
1	1009	207.104993715293	0.10577441182
1	1014	209.153379041299	0.059337000713
1	1019	210.484694751928	0.059337000713
1	1024	210.665783935477	0.059337000713
1	1029	211.985151402373	0.059337000713
1	1034	212.251536099384	0.059337000713
1	1039	214.079634538807	0.059337000713
1	1044	214.382261761929	0.059337000713
1	1049	214.704161404703	0.059337000713
1	1054	215.093776918904	0.059337000713
1	1059	215.342034498687	0.059337000713
1	1064	216.74657826175	0.059337000713
1	1069	217.208531784386	0.059337000713
1	1074	217.296842632546	0.059337000713
1	1079	218.326154866075	0.059337000713
1	1084	223.015878488579	0.059337000713
1	1089	223.319234002497	0.059337000713
1	1094	223.480537802263	0.059337000713
1	1099	224.218872591183	0.059337000713
1	1104	226.301149794865	0.059337000713
1	1113	231.67465448198	0.059337000713
1	1116	231.733991482693	0.078613594919
1	1121	231.793328483406	0.126486700462
1	1124	231.852665484119	0.066433206314
1	1129	234.219474573419	0.059337000713
1	1134	234.563156271027	0.059337000713
1	1139	234.647963740936	0.059337000713
1	1144	236.980935904231	0.059337000713
1	1149	237.093371031861	0.059337000713
1	1154	239.623146699638	0.059337000713
1	1161	240.01400302158	0.059337000713
1	1164	240.073340022293	0.098211284919
1	1169	243.044300249932	0.059337000713
1	1174	244.479566685864	0.059337000713
1	1179	245.61643252325	0.059337000713
1	1184	245.996777203211	0.059337000713
1	1189	246.736240970155	0.059337000713
1	1194	247.279594664946	0.059337000713
1	1199	247.899992757131	0.059337000713
1	1204	248.738896836119	0.059337000713
1	1209	250.06967605002	0.059337000713
1	1214	251.269084846735	0.059337000713
1	1221	252.236212772021	0.059337000713
1	1224	252.295549772734	0.086774207862
1	1231	253.757480878624	0.059337000713
1	1234	253.816817879337	0.110884119657
1	1239	255.89105413645	0.059337000713
1	1244	257.2658575019	0.059337000713
1	1249	257.470201429754	0.059337000713
1	1254	260.908432932972	0.059337000713
1	1260	261.469785400822	0.059337000713
1	1265	261.812415738399	0.059337000713
1	1270	262.177327801323	0.059337000713
1	1275	265.026930477291	0.059337000713
1	1280	265.781485754399	0.059337000713
1	1285	266.675839495344	0.059337000713
1	1290	267.062679603977	0.059337000713
1	1295	267.208167810851	0.059337000713
1	1300	267.977796426876	0.059337000713
1	1305	268.070089567989	0.059337000713
1	1310	269.850613650933	0.059337000713
1	1315	270.843478543505	0.059337000713
1	1320	271.143667017795	0.059337000713
1	1327	271.846128512574	0.059337000713
1	1330	271.905465513287	0.066821539259
1	1335	272.636773161073	0.059337000713
1	1340	272.789978761725	0.059337000713
1	1345	273.780017088496	0.059337000713
1	1350	274.185438994298	0.059337000713
1	1355	274.440864813392	0.059337000713
1	1360	274.69002687535	0.059337000713
1	1365	274.993686892578	0.059337000713
1	1370	275.607686043141	0.059337000713
1	1375	276.434304926184	0.059337000713
1	1380	277.207992820074	0.059337000713
1	1385	277.70474300358	0.059337000713
1	1390	278.309011946564	0.059337000713
1	1395	279.540039347896	0.059337000713
1	1400	280.638733135267	0.059337000713
1	1405	280.878950034184	0.059337000713
1	1410	281.630459957759	0.059337000713
1	1415	281.966565098088	0.059337000713
1	1420	282.629535122252	0.059337000713
1	1425	284.511298058614	0.059337000713
1	1430	284.679388017623	0.059337000713
1	1435	285.298501751975	0.059337000713
1	1440	285.688674289674	0.059337000713
1	1445	285.765977279983	0.059337000713
1	1450	287.77129832117	0.059337000713
1	1455	289.737564104819	0.059337000713
1	1460	290.230237221815	0.059337000713
1	1465	290.775472112453	0.059337000713
1	1470	292.995541180959	0.059337000713
1	1475	293.739815912655	0.059337000713
1	1480	294.979941062942	0.059337000713
1	1487	296.034638594119	0.059337000713
1	1490	296.093975594832	0.104816235516
1	1495	296.512185341277	0.059337000713
1	1500	297.653974303259	0.059337000713
1	1505	301.931842699854	0.059337000713
1	1511	302.263287144958	0.059337000713
1	1516	302.588080930666	0.059337000713
1	1521	302.867724650358	0.059337000713
1	1526	304.011475148426	0.059337000713
1	1531	304.30228184272	0.059337000713
1	1536	305.090202634571	0.059337000713
1	1541	306.984058152096	0.059337000713
1	1548	307.732961294054	0.059337000713
1	1553	307.792298294767	0.065085365134
1	1556	307.85163529548	0.116667485953
1	1561	309.606463215291	0.059337000713
1	1566	311.023495001235	0.059337000713
1	1571	313.197887008014	0.059337000713
1	1576	313.423050761719	0.059337000713
1	1581	313.815847589102	0.059337000713
1	1586	315.164346292516	0.059337000713
1	1591	317.203465415603	0.059337000713
1	1596	317.325355873242	0.059337000713
1	1601	321.253523207602	0.059337000713
1	1606	321.843793593392	0.059337000713
1	1611	323.025410532897	0.059337000713
1	1616	323.351767327781	0.059337000713
1	1621	324.674041925802	0.059337000713
1	1626	324.910298746353	0.059337000713
1	1631	325.127305899887	0.059337000713
1	1636	325.581608012373	0.059337000713
1	1641	327.633045091216	0.059337000713
1	1646	329.221625437942	0.059337000713
1	1651	330.172348433626	0.059337000713
1	1656	330.266413899925	0.059337000713
1	1661	331.33170417894	0.059337000713
1	1666	332.413261585167	0.059337000713
1	1671	332.697340543433	0.059337000713
1	1676	332.949630397068	0.059337000713
1	1681	333.11391291531	0.059337000713
1	1686	333.731656892087	0.059337000713
1	1691	333.99646904989	0.059337000713
1	1696	334.965576259622	0.059337000713
1	1701	335.828068054182	0.059337000713
1	1706	336.002434309361	0.059337000713
1	1711	336.647559419133	0.059337000713
1	1716	339.285696917651	0.059337000713
1	1721	339.629345271164	0.059337000713
1	1726	340.679863012608	0.059337000713
1	1731	341.748043908905	0.059337000713
1	1736	342.575525956622	0.059337000713
1	1741	343.862810971635	0.059337000713
1	1746	344.631026586737	0.059337000713
1	1751	344.765420812078	0.059337000713
1	1756	346.10864060718	0.059337000713
1	1762	347.613025021405	0.059337000713
1	1767	350.466223292237	0.059337000713
1	1772	351.559865276072	0.059337000713
1	1779	351.87398284746	0.059337000713
1	1784	351.933319848173	0.076161604595
1	1787	351.992656848886	0.081383352484
1	1792	354.858971883725	0.059337000713
1	1797	355.046419576153	0.059337000713
1	1802	355.475225287222	0.059337000713
1	1807	356.156237890523	0.059337000713
1	1812	358.396608062795	0.059337000713
1	1817	359.639330356537	0.059337000713
1	1822	361.038127784272	0.059337000713
1	1827	361.76547977626	0.059337000713
1	1832	362.735456491272	0.059337000713
1	1837	362.990256308824	0.059337000713
1	1842	363.602418068955	0.059337000713
1	1847	363.863916730535	0.059337000713
1	1852	365.428030196878	0.059337000713
1	1857	368.509310131983	0.059337000713
1	1862	368.81841023574	0.059337000713
1	1867	369.227876759941	0.059337000713
1	1872	369.778977479876	0.059337000713
1	1877	370.919271594717	0.059337000713
1	1882	371.195140492376	0.059337000713
1	1887	372.520249083447	0.059337000713
1	1892	372.687406250385	0.059337000713
1	1897	373.173787252794	0.059337000713
1	1902	373.818926821246	0.059337000713
1	1907	374.573940251913	0.059337000713
1	1912	375.056690468292	0.059337000713
1	1917	375.177058422195	0.059337000713
1	1922	377.112092057179	0.059337000713
1	1927	377.716021114848	0.059337000713
1	1934	378.182223036568	0.059337000713
1	1937	378.241560037281	0.066035578271
1	1942	379.429526297669	0.059337000713
1	1947	379.938261267682	0.059337000713
1	1952	382.388643281073	0.059337000713
1	1957	384.827830655459	0.059337000713
1	1962	385.27518381752	0.059337000713
1	1967	385.874789085609	0.059337000713
1	1972	387.673441117076	0.059337000713
1	1977	387.74248014047	0.059337000713
1	1982	388.065235205027	0.059337000713
1	1987	395.023807429984	0.059337000713
1	1992	398.670633616917	0.059337000713
1	1999	406.279507591425	0.059337000713
1	2002	406.338844592138	0.0889251083
1	2007	406.721304057603	0.059337000713
1	2013	406.910949332915	0.147789638169
1	2018	407.133988287502	0.059337000713
1	2023	408.853764414956	0.059337000713
1	2028	409.504747795982	0.059337000713
1	2033	410.103955365949	0.059337000713
1	2038	410.328773711726	0.059337000713
1	2043	410.657696851746	0.059337000713
1	2048	411.992987612513	0.059337000713
1	2053	412.800227271222	0.059337000713
1	2058	412.995117561798	0.059337000713
1	2063	415.521634350549	0.059337000713
1	2068	415.686563445745	0.059337000713
1	2073	417.677147013044	0.059337000713
1	2078	418.112837743402	0.059337000713
1	2083	418.816284912952	0.059337000713
1	2088	419.325458974703	0.059337000713
1	2093	421.697211288721	0.059337000713
1	2098	424.38181944456	0.059337000713
1	2103	426.409101265737	0.059337000713
1	2108	427.19255091686	0.059337000713
1	2113	427.337309696081	0.059337000713
1	2118	427.942678504594	0.059337000713
1	2123	428.124035630499	0.059337000713
1	2128	428.845450859334	0.059337000713
1	2133	431.107751701244	0.059337000713
1	2138	433.790207990304	0.059337000713
1	2145	434.395589697561	0.059337000713
1	2148	434.454926698274	0.067464600439
1	2153	435.406935864626	0.059337000713
1	2158	437.453544461894	0.059337000713
1	2163	437.64325229737	0.059337000713
1	2168	438.003657227293	0.059337000713
1	2173	438.150172883534	0.059337000713
1	2178	438.979573103831	0.059337000713
1	2183	439.519949422386	0.059337000713
1	2188	440.468715687782	0.059337000713
1	2193	440.853917266823	0.059337000713
1	2198	441.083447567148	0.059337000713
1	2205	442.10853469695	0.059337000713
1	2208	442.167871697663	0.117292981171
1	2213	443.544200973648	0.059337000713
1	2218	444.033034911492	0.059337000713
1	2223	444.397566134199	0.059337000713
1	2228	444.620910979365	0.059337000713
1	2233	445.105902343166	0.059337000713
1	2238	445.506418633488	0.059337000713
1	2243	446.901185050466	0.059337000713
1	2248	448.286256513526	0.059337000713
1	2253	449.115885619938	0.059337000713
1	2258	449.753061559604	0.059337000713
1	2264	449.942706834916	0.12386895141
1	2269	450.329990655971	0.059337000713
1	2274	451.934477511885	0.059337000713
1	2279	455.7406559873	0.059337000713
1	2284	458.548012004614	0.059337000713
1	2291	459.229142710237	0.059337000713
1	2294	459.28847971095	0.072477627036
1	2299	461.032796916663	0.059337000713
1	2304	461.479577343722	0.059337000713
1	2309	461.797946402082	0.059337000713
1	2314	463.37970895992	0.059337000713
1	2319	465.591356975559	0.059337000713
1	2324	468.447858060582	0.059337000713
1	2329	468.777526063464	0.059337000713
1	2334	468.966076217682	0.059337000713
1	2339	469.296730924334	0.059337000713
1	2344	470.894584327427	0.059337000713
1	2349	471.597472465666	0.059337000713
1	2354	471.865038363414	0.059337000713
1	2359	472.442397524037	0.059337000713
1	2364	472.517411076174	0.059337000713
1	2369	473.096977101278	0.059337000713
1	2374	473.4626830391	0.059337000713
1	2379	474.259028292954	0.059337000713
1	2384	475.091305827732	0.059337000713
1	2389	479.067129904559	0.059337000713
1	2394	479.598210442961	0.059337000713
1	2399	480.709787496987	0.059337000713
1	2404	481.895950842378	0.059337000713
1	2409	482.111605215851	0.059337000713
1	2414	482.855828088702	0.059337000713
1	2419	483.296798520042	0.059337000713
1	2424	484.212168266576	0.059337000713
1	2429	484.75073990759	0.059337000713
1	2434	486.280900826289	0.059337000713
1	2439	488.306469936002	0.059337000713
1	2444	488.809750674263	0.059337000713
1	2449	489.579652677739	0.059337000713
1	2454	491.113808996926	0.059337000713
1	2459	491.350485508724	0.059337000713
1	2464	493.452982357687	0.059337000713
1	2469	494.779134014092	0.059337000713
1	2474	495.763583337661	0.059337000713
1	2479	498.059875036908	0.059337000713
1	2484	498.975597215631	0.059337000713
1	2489	502.055219211097	0.059337000713
1	2494	502.476453536952	0.059337000713
1	2499	503.153048386264	0.059337000713
1	2504	504.65678847555	0.059337000713
1	2509	504.965408184098	0.059337000713
1	2515	507.385054660197	0.059337000713
1	2520	508.370338541192	0.059337000713
1	2525	508.575351724273	0.059337000713
1	2530	509.742527020108	0.059337000713
1	2535	511.410948111611	0.059337000713
1	2540	511.593240318577	0.059337000713
1	2545	511.747965484876	0.059337000713
1	2550	512.917140662783	0.059337000713
1	2555	513.159692104403	0.059337000713
1	2560	514.240163058741	0.059337000713
1	2565	516.029370522946	0.059337000713
1	2570	516.288040203537	0.059337000713
1	2575	516.877678851478	0.059337000713
1	2580	517.772967649122	0.059337000713
1	2585	519.69327537202	0.059337000713
1	2590	520.260727863411	0.059337000713
1	2595	520.923167777101	0.059337000713
1	2600	521.23476632317	0.059337000713
1	2605	523.620081147906	0.059337000713
1	2610	524.943336829787	0.059337000713
1	2615	525.332855494215	0.059337000713
1	2620	525.602436485542	0.059337000713
1	2625	527.161272190318	0.059337000713
1	2630	527.819004166794	0.059337000713
1	2635	529.381032802229	0.059337000713
1	2640	532.069627666013	0.059337000713
1	2645	532.22018210382	0.059337000713
1	2650	534.792767176261	0.059337000713
1	2655	536.576981632119	0.059337000713
1	2660	538.27999880832	0.059337000713
1	2665	538.704157124442	0.059337000713
1	2670	539.243563613943	0.059337000713
1	2675	541.12926833427	0.059337000713
1	2680	541.964092894998	0.059337000713
1	2685	543.693577009932	0.059337000713
1	2690	544.825439432018	0.059337000713
1	2695	546.27628169311	0.059337000713
1	2700	547.017436655506	0.059337000713
1	2705	547.570956500809	0.059337000713
1	2710	548.058571835495	0.059337000713
1	2715	548.73461010135	0.059337000713
1	2720	548.966808221957	0.059337000713
1	2725	550.011673183181	0.059337000713
1	2730	551.856774122104	0.059337000713
1	2735	553.873726125814	0.059337000713
1	2740	557.240776537716	0.059337000713
1	2747	558.203274152881	0.059337000713
1	2750	558.262611153594	0.074705816283
1	2755	559.451527694772	0.059337000713
1	2760	559.769662736416	0.059337000713
1	2766	560.394614038127	0.059337000713
1	2771	561.519280210772	0.059337000713
1	2776	561.741526258766	0.059337000713
1	2781	562.291626485728	0.059337000713
1	2786	563.163000423307	0.059337000713
1	2791	565.961780422967	0.059337000713
1	2796	569.820429043789	0.059337000713
1	2801	570.77813330988	0.059337000713
1	2806	571.761682297015	0.059337000713
1	2811	572.507052752715	0.059337000713
1	2816	572.6551474262	0.059337000713
1	2821	572.793367392323	0.059337000713
1	2826	572.887852077271	0.059337000713
1	2831	574.356499633008	0.059337000713
1	2836	574.76859462493	0.059337000713
1	2841	575.256896952789	0.059337000713
1	2846	577.42600199212	0.059337000713
1	2851	577.552968093376	0.059337000713
1	2858	577.66426848653	0.059337000713
1	2861	577.723605487243	0.080354749303
1	2866	578.617315122723	0.059337000713
1	2871	579.342813098885	0.059337000713
1	2876	581.429077987436	0.059337000713
1	2881	582.23021567474	0.059337000713
1	2886	582.331411874007	0.059337000713
1	2891	583.44765171132	0.059337000713
1	2896	584.23032985805	0.059337000713
1	2901	585.750361162506	0.059337000713
1	2906	586.428835664149	0.059337000713
1	2911	586.975344836445	0.059337000713
1	2916	588.088748776553	0.059337000713
1	2921	589.006393499223	0.059337000713
1	2926	589.489508829901	0.059337000713
1	2933	589.956856935562	0.059337000713
1	2936	590.016193936275	0.063916241862
1	2941	590.115711107801	0.059337000713
1	2946	592.563031840943	0.059337000713
1	2951	594.980456108134	0.059337000713
1	2956	595.157617280548	0.059337000713
1	2961	596.073109093543	0.059337000713
1	2966	597.983158491911	0.059337000713
1	2971	598.806925353761	0.059337000713
1	2976	599.064011053978	0.059337000713
1	2981	600.996944591836	0.059337000713
1	2986	601.495776029881	0.059337000713
1	2991	602.319295769588	0.059337000713
1	2996	604.031816688218	0.059337000713
1	3001	605.876480535395	0.059337000713
1	3006	611.09232868625	0.059337000713
1	3013	612.520089043445	0.059337000713
1	3017	612.709734318757	0.240036881587
1	3022	613.682508660452	0.059337000713
1	3027	617.956911739725	0.059337000713
1	3032	618.431321970662	0.059337000713
1	3037	620.915978905376	0.059337000713
1	3042	621.119975433566	0.059337000713
1	3047	621.431457164702	0.059337000713
1	3052	622.312128653463	0.059337000713
1	3057	622.860969282804	0.059337000713
1	3062	623.211153009442	0.059337000713
1	3067	623.957283940204	0.059337000713
1	3072	624.628073324431	0.059337000713
1	3077	625.465580099742	0.059337000713
1	3082	625.996994934309	0.059337000713
1	3087	626.70261143395	0.059337000713
1	3092	627.114283627186	0.059337000713
1	3097	630.431492617834	0.059337000713
1	3102	631.82282571036	0.059337000713
1	3107	632.344661898284	0.059337000713
1	3112	633.367206813727	0.059337000713
1	3117	635.609220545264	0.059337000713
1	3122	636.034213976809	0.059337000713
1	3127	636.728096688352	0.059337000713
1	3134	636.867665963363	0.059337000713
1	3137	636.927002964076	0.115830494069
1	3142	640.105675659328	0.059337000713
1	3147	640.87415256589	0.059337000713
1	3152	642.155317518837	0.059337000713
1	3157	643.542982334034	0.059337000713
1	3162	643.955424294509	0.059337000713
1	3167	645.425554604234	0.059337000713
1	3172	648.855381726183	0.059337000713
1	3177	649.205700476279	0.059337000713
1	3182	649.382443113547	0.059337000713
1	3187	649.805142056314	0.059337000713
1	3192	650.61385271065	0.059337000713
1	3197	650.990255153132	0.059337000713
1	3202	651.400699311117	0.059337000713
1	3207	651.495745609948	0.059337000713
1	3212	654.137831427418	0.059337000713
1	3217	655.479130417662	0.059337000713
1	3222	657.364732955113	0.059337000713
1	3227	658.46666915336	0.059337000713
1	3232	658.752494600518	0.059337000713
1	3237	659.344286044076	0.059337000713
1	3242	661.713554472954	0.059337000713
1	3247	662.888871261262	0.059337000713
1	3252	664.193387279956	0.059337000713
1	3257	664.727925362927	0.059337000713
1	3262	667.159112572569	0.059337000713
1	3268	667.80068458594	0.059337000713
1	3275	670.189169328177	0.059337000713
1	3278	670.24850632889	0.07106645665
1	3283	671.774783642838	0.059337000713
1	3288	673.318669628718	0.059337000713
1	3293	673.944069704461	0.059337000713
1	3298	674.347602261066	0.059337000713
1	3303	675.928557304163	0.059337000713
1	3308	676.048337460007	0.059337000713
1	3313	676.610336788265	0.059337000713
1	3318	676.717547044889	0.059337000713
1	3323	678.99037702101	0.059337000713
1	3328	679.494070231102	0.059337000713
1	3333	679.881687648577	0.059337000713
1	3338	680.020239678699	0.059337000713
1	3343	680.465177055674	0.059337000713
1	3348	680.568417262485	0.059337000713
1	3353	681.118391195234	0.059337000713
1	3358	681.506603446895	0.059337000713
1	3365	681.934091360202	0.059337000713
1	3368	681.993428360915	0.11269867926
1	3373	683.821280178337	0.059337000713
1	3378	684.481115521809	0.059337000713
1	3383	685.782451830749	0.059337000713
1	3388	686.16429035135	0.059337000713
1	3393	687.167017222562	0.059337000713
1	3398	688.662503875923	0.059337000713
1	3403	688.95007713484	0.059337000713
1	3408	689.564113383612	0.059337000713
1	3413	689.778097017984	0.059337000713
1	3418	694.202460572641	0.059337000713
1	3423	697.959491595138	0.059337000713
1	3428	698.952656917886	0.059337000713
1	3433	700.448834390943	0.059337000713
1	3438	702.21570588482	0.059337000713
1	3443	702.29196051002	0.059337000713
1	3448	703.109540438041	0.059337000713
1	3453	704.463060335287	0.059337000713
1	3458	705.611323746127	0.059337000713
1	3463	707.91509814557	0.059337000713
1	3468	708.29744692208	0.059337000713
1	3473	709.088659511247	0.059337000713
1	3478	709.244631326372	0.059337000713
1	3483	709.858277920755	0.059337000713
1	3488	711.741602348235	0.059337000713
1	3493	711.853814411418	0.059337000713
1	3498	717.275545333691	0.059337000713
1	3503	718.364211625614	0.059337000713
1	3508	718.926580435241	0.059337000713
1	3513	720.200791482313	0.059337000713
1	3519	721.142776819962	0.059337000713
1	3524	725.19108928049	0.059337000713
1	3529	725.556678945474	0.059337000713
1	3534	727.069019428952	0.059337000713
1	3539	727.866962424153	0.059337000713
1	3544	728.84167129138	0.059337000713
1	3551	730.280863153594	0.059337000713
1	3554	730.340200154307	0.117443581623
1	3559	730.667726056581	0.059337000713
1	3564	733.259187798278	0.059337000713
1	3569	734.567517313229	0.059337000713
1	3574	736.745488443518	0.059337000713
1	3579	737.015376066414	0.059337000713
1	3584	737.371685520136	0.059337000713
1	3589	737.601333009047	0.059337000713
1	3594	739.199444425165	0.059337000713
1	3599	739.285092542192	0.059337000713
1	3604	742.159736320404	0.059337000713
1	3609	742.25736606069	0.059337000713
1	3614	743.232082792185	0.059337000713
1	3621	746.097140616837	0.059337000713
1	3624	746.15647761755	0.08711364951
1	3629	746.258976585299	0.059337000713
1	3634	746.332689533775	0.059337000713
1	3639	747.171315293227	0.059337000713
1	3644	747.348215608474	0.059337000713
1	3649	747.68421600969	0.059337000713
1	3654	749.149530514451	0.059337000713
1	3659	749.553063977343	0.059337000713
1	3664	750.672737888477	0.059337000713
1	3669	751.129996403566	0.059337000713
1	3674	752.569142385943	0.059337000713
1	3679	752.899084313833	0.059337000713
1	3684	754.046552684118	0.059337000713
1	3689	754.525862101101	0.059337000713
1	3694	754.792251107412	0.059337000713
1	3699	755.396931662657	0.059337000713
1	3704	755.952929993334	0.059337000713
1	3709	756.105773418341	0.059337000713
1	3714	757.645324840081	0.059337000713
1	3719	758.692424711126	0.059337000713
1	3726	760.317025045085	0.059337000713
1	3729	760.376362045798	0.06654020851
1	3734	761.027275513843	0.059337000713
1	3739	761.811354211945	0.059337000713
1	3744	761.889985911927	0.059337000713
1	3749	764.207036171865	0.059337000713
1	3754	764.387569693007	0.059337000713
1	3759	764.649667896713	0.059337000713
1	3764	765.123560440821	0.059337000713
1	3770	765.422784904483	0.059337000713
1	3775	765.893712965126	0.059337000713
1	3780	768.526050858291	0.059337000713
1	3785	773.10775441234	0.059337000713
1	3790	774.269463556006	0.059337000713
1	3795	776.246524483443	0.059337000713
1	3800	776.558686336057	0.059337000713
1	3805	776.947635873347	0.059337000713
1	3810	777.964628306018	0.059337000713
1	3815	780.10603444891	0.059337000713
1	3820	780.842262070447	0.059337000713
1	3827	781.382398908225	0.059337000713
1	3830	781.441735908938	0.114433763921
1	3835	781.937876441554	0.059337000713
1	3840	783.140798734987	0.059337000713
1	3845	784.658025266883	0.059337000713
1	3852	785.74825345634	0.059337000713
1	3855	785.807590457053	0.081328327299
1	3860	786.758493723456	0.059337000713
1	3865	788.050044601875	0.059337000713
1	3870	788.257085011063	0.059337000713
1	3875	789.089562974061	0.059337000713
1	3880	790.269450768413	0.059337000713
1	3885	790.495770050494	0.059337000713
1	3890	798.468287522433	0.059337000713
1	3895	798.728890817261	0.059337000713
1	3900	800.179372215088	0.059337000713
1	3905	800.3827440189	0.059337000713
1	3910	802.796707003156	0.059337000713
1	3915	803.006217882591	0.059337000713
1	3920	803.718750499782	0.059337000713
1	3925	804.199059156803	0.059337000713
1	3930	804.467424496453	0.059337000713
1	3935	805.268534611832	0.059337000713
1	3940	805.750377775732	0.059337000713
1	3945	805.892290420797	0.059337000713
1	3950	807.25934153508	0.059337000713
1	3955	807.322129070481	0.059337000713
1	3960	809.16061219326	0.059337000713
1	3965	810.403420040933	0.059337000713
1	3970	813.395075913105	0.059337000713
1	3975	814.152311472579	0.059337000713
1	3980	814.300865733031	0.059337000713
1	3985	816.650302188123	0.059337000713
1	3990	816.857335682754	0.059337000713
1	3995	816.978343988321	0.059337000713
1	4000	817.07847019404	0.059337000713
1	4005	817.184606306015	0.059337000713
1	4010	818.055281289774	0.059337000713
1	4015	818.175456873103	0.059337000713
1	4021	819.140032393516	0.059337000713
1	4026	819.710191974841	0.059337000713
1	4031	821.420975777471	0.059337000713
1	4036	824.147567203546	0.059337000713
1	4041	824.322417051918	0.059337000713
1	4046	826.132492321842	0.059337000713
1	4051	827.877413585562	0.059337000713
1	4056	828.863983300118	0.059337000713
1	4061	831.009369003378	0.059337000713
1	4066	831.324584452122	0.059337000713
1	4071	832.002266939129	0.059337000713
1	4076	832.518406922453	0.059337000713
1	4081	833.489726627208	0.059337000713
1	4086	836.500506640585	0.059337000713
1	4091	837.10780535605	0.059337000713
1	4096	837.17610774126	0.059337000713
1	4101	837.525824868004	0.059337000713
1	4106	839.344866307402	0.059337000713
1	4111	839.463570177018	0.059337000713
1	4116	840.944251372852	0.059337000713
1	4121	841.13050477812	0.059337000713
1	4126	843.417512919124	0.059337000713
1	4131	844.287855456598	0.059337000713
1	4136	846.241588061798	0.059337000713
1	4141	846.493558979236	0.059337000713
1	4146	847.502513408823	0.059337000713
1	4151	849.005794860389	0.059337000713
1	4156	849.113568352023	0.059337000713
1	4161	849.395489450885	0.059337000713
1	4166	849.651107915791	0.059337000713
1	4171	850.17206746974	0.059337000713
1	4178	854.708561751745	0.059337000713
1	4181	854.767898752458	0.071687090354
1	4186	855.799613105255	0.059337000713
1	4191	856.169886366508	0.059337000713
1	4196	856.735601418737	0.059337000713
1	4201	858.993409616046	0.059337000713
1	4206	859.21236369295	0.059337000713
1	4211	859.956742123446	0.059337000713
1	4216	860.037558916845	0.059337000713
1	4221	860.22649889088	0.059337000713
1	4226	860.945184996409	0.059337000713
1	4231	862.024192976318	0.059337000713
1	4236	862.190750972549	0.059337000713
1	4241	862.314116730936	0.059337000713
1	4246	862.881411793296	0.059337000713
1	4251	865.906853758317	0.059337000713
1	4256	868.988220629897	0.059337000713
1	4261	870.058710916021	0.059337000713
1	4266	870.898145755734	0.059337000713
1	4272	871.483464653271	0.059337000713
1	4277	872.164596124039	0.059337000713
1	4282	873.806811809064	0.059337000713
1	4287	874.363638005069	0.059337000713
1	4292	875.515809303589	0.059337000713
1	4297	876.264606772492	0.059337000713
1	4302	877.03615571905	0.059337000713
1	4307	878.010493571618	0.059337000713
1	4312	879.435453492003	0.059337000713
1	4317	881.148669757498	0.059337000713
1	4322	881.826694644452	0.059337000713
1	4327	882.362667908261	0.059337000713
1	4332	882.805449743793	0.059337000713
1	4337	883.446214888674	0.059337000713
1	4342	884.201673123188	0.059337000713
1	4347	885.324380814922	0.059337000713
1	4352	885.468277300714	0.059337000713
1	4357	886.390458997117	0.059337000713
1	4362	886.86890061615	0.059337000713
1	4367	887.306106482448	0.059337000713
1	4372	887.819519207073	0.059337000713
1	4377	888.082884742337	0.059337000713
1	4382	890.213368414408	0.059337000713
1	4387	892.389914896861	0.059337000713
1	4392	893.22609150009	0.059337000713
1	4397	894.860182875379	0.059337000713
1	4402	894.9711779829	0.059337000713
1	4409	896.990470003267	0.059337000713
1	4412	897.04980700398	0.106737021545
1	4417	898.732795026623	0.059337000713
1	4422	899.40375276004	0.059337000713
1	4427	899.906122663941	0.059337000713
1	4432	900.380883010755	0.059337000713
1	4437	900.499971444007	0.059337000713
1	4442	901.483344617141	0.059337000713
1	4447	905.118096332318	0.059337000713
1	4452	906.866178783701	0.059337000713
1	4457	907.122893208324	0.059337000713
1	4462	907.638091472932	0.059337000713
1	4467	908.875030601802	0.059337000713
1	4472	909.380441841951	0.059337000713
1	4477	909.579534089058	0.059337000713
1	4482	909.655985598582	0.059337000713
1	4487	911.952574439496	0.059337000713
1	4492	913.472137055263	0.059337000713
1	4497	914.32528324758	0.059337000713
1	4502	916.720113939893	0.059337000713
1	4507	917.004979566212	0.059337000713
1	4512	917.133451645159	0.059337000713
1	4517	917.647827954814	0.059337000713
1	4523	918.708451168242	0.059337000713
1	4528	922.053814938947	0.059337000713
1	4533	922.596057682572	0.059337000713
1	4538	924.083164318432	0.059337000713
1	4543	925.54889452588	0.059337000713
1	4548	931.024348739861	0.059337000713
1	4553	931.73010200438	0.059337000713
1	4558	932.011680877243	0.059337000713
1	4563	933.322825281253	0.059337000713
1	4568	933.862477776585	0.059337000713
1	4573	935.187230901118	0.059337000713
1	4578	935.3536538935	0.059337000713
1	4583	935.458409767414	0.059337000713
1	4588	936.682301858231	0.059337000713
1	4593	938.347018666227	0.059337000713
1	4598	938.913693702478	0.059337000713
1	4603	939.814266473392	0.059337000713
1	4608	939.904702205981	0.059337000713
1	4613	940.136903069908	0.059337000713
1	4618	940.40770070871	0.059337000713
1	4623	942.139578782229	0.059337000713
1	4628	943.626192299731	0.059337000713
1	4635	944.482167764543	0.059337000713
1	4638	944.541504765256	0.108488764032
1	4643	945.684451947545	0.059337000713
1	4648	945.873760827238	0.059337000713
1	4653	946.6093121151	0.059337000713
1	4660	947.271115932714	0.059337000713
1	4663	947.330452933427	0.062781822707
1	4668	948.511590825859	0.059337000713
1	4673	951.399365027368	0.059337000713
1	4678	951.493863638108	0.059337000713
1	4683	951.588474560499	0.059337000713
1	4688	951.671991717775	0.059337000713
1	4693	952.016876213752	0.059337000713
1	4698	954.319270344714	0.059337000713
1	4703	954.625386911155	0.059337000713
1	4708	955.175433700759	0.059337000713
1	4713	956.789095944284	0.059337000713
1	4718	958.260317394763	0.059337000713
1	4723	959.663067059	0.059337000713
1	4728	959.963867954806	0.059337000713
1	4733	960.594362835303	0.059337000713
1	4738	960.896998568149	0.059337000713
1	4743	961.635971577619	0.059337000713
1	4748	962.677843327559	0.059337000713
1	4755	963.380632773019	0.059337000713
1	4758	963.439969773732	0.110061504294
1	4763	966.764660780468	0.059337000713
1	4768	967.676514885177	0.059337000713
1	4774	968.883890660575	0.059337000713
1	4779	969.049532641354	0.059337000713
1	4786	969.216939539204	0.059337000713
1	4789	969.276276539917	0.099201317027
1	4794	970.307162625087	0.059337000713
1	4799	970.369735734231	0.059337000713
1	4804	972.504433670189	0.059337000713
1	4809	973.370286730361	0.059337000713
1	4814	974.166170512867	0.059337000713
1	4819	974.675698928751	0.059337000713
1	4824	975.816463550488	0.059337000713
1	4829	976.558993984003	0.059337000713
1	4834	978.495207624188	0.059337000713
1	4839	978.845372296504	0.059337000713
1	4844	979.401663235479	0.059337000713
1	4849	980.204254806744	0.059337000713
1	4854	981.356623715062	0.059337000713
1	4859	982.955674112981	0.059337000713
1	4864	985.459467609091	0.059337000713
1	4869	988.385348835435	0.059337000713
1	4874	992.308712307806	0.059337000713
1	4879	993.213098315501	0.059337000713
1	4884	994.904738536019	0.059337000713
1	4889	994.988542945526	0.059337000713
1	4894	995.437371876919	0.059337000713
1	4899	997.186610451341	0.059337000713
1	4904	997.275461562937	0.059337000713
1	4909	997.51569333433	0.059337000713
1	4914	999.067099049713	0.059337000713
1	4919	999.511305104671	0.059337000713
1	4926	999.834660758059	0.059337000713
1	4929	999.893997758772	0.109430756469
2	5	0.345361658553	0
2	10	1.876188297215	0
2	15	2.283688643116	0
2	20	3.93667827883	0
2	25	4.272380195785	0
2	30	5.254886668313	0
2	35	5.422896846798	0
2	40	6.34952491431	0
2	45	6.723567816294	0
2	50	8.892513223915	0
2	55	9.021893058323	0
2	60	10.445338920578	0
2	65	12.147199687933	0
2	70	12.346999165459	0
2	75	12.526832095752	0
2	80	12.689550239815	0
2	85	13.248176266181	0
2	90	13.820308967779	0
2	95	14.222894490646	0
2	100	14.709470768776	0
2	105	15.840984683177	0
2	110	16.698322466778	0
2	115	17.945801114292	0
2	120	18.103731404466	0
2	125	18.200144853757	0
2	132	19.360397534505	0
2	135	19.419734535218	0.027570311248
2	140	20.024788440096	0
2	145	20.59858692769	0
2	150	21.442555017453	0
2	155	22.267320612754	0
2	160	23.304934744397	0
2	165	23.496581837268	0
2	170	24.781550114395	0
2	175	26.49261414679	0
2	180	27.634146739215	0
2	185	30.166018930445	0
2	190	30.365588959217	0
2	195	30.888211076528	0
2	200	31.013954006282	0
2	205	31.235624676938	0
2	210	31.51366590364	0
2	217	31.592791636597	0
2	220	31.65212863731	0.051119917485
2	225	32.333098437681	0
2	230	32.779492566802	0
2	235	33.941647322662	0
2	240	34.099520292521	0
2	245	34.384736462353	0
2	250	35.167202532511	0
2	256	36.211217003272	0
2	261	38.156851286535	0
2	266	38.235385160049	0
2	271	38.45879395135	0
2	276	40.34625326459	0
2	281	40.490855377058	0
2	286	43.298638144742	0
2	291	43.538919668717	0
2	296	44.093513695467	0
2	301	47.711213563459	0
2	306	49.602729583895	0
2	311	51.556982923126	0
2	316	53.64004840129	0
2	321	54.403157472784	0
2	326	54.561519982754	0
2	331	55.131491734829	0
2	336	60.043359007701	0
2	341	60.250620061441	0
2	346	63.927116159518	0
2	351	64.267181218409	0
2	356	64.336149111122	0
2	361	65.322774690458	0
2	366	65.616701592444	0
2	371	66.056301528644	0
2	376	68.47671460562	0
2	381	69.78403297953	0
2	386	70.285346782674	0
2	391	71.099505737249	0
2	396	71.312670890534	0
2	401	74.166729148662	0
2	406	74.674473473691	0
2	413	74.84117246146	0
2	416	74.900509462173	0.050813776459
2	421	77.115231533965	0
2	426	79.029923030733	0
2	433	79.225980099338	0
2	436	79.285317100051	0.017359362602
2	441	80.17000666142	0
2	448	84.376561732807	0
2	451	84.43589873352	0.015772058002
2	456	85.956865017714	0
2	461	87.01642164904	0
2	466	88.474542935358	0
2	471	88.931384840953	0
2	476	90.981989844665	0
2	481	92.569518415465	0
2	490	92.935664178449	0
2	493	92.995001179162	0.048370033712
2	496	93.054338179875	0.076286354443
2	501	93.632511200538	0
2	507	97.36219328662	0
2	512	97.464015769211	0
2	517	98.985439786746	0
2	522	99.122489295898	0
2	527	100.078788877073	0
2	532	101.789286611573	0
2	537	104.221973809656	0
2	542	105.146765042515	0
2	547	105.220213309826	0
2	552	108.597973855663	0
2	557	108.822118919671	0
2	562	110.003680660409	0
2	567	110.460059042699	0
2	572	114.167432317354	0
2	577	114.401586109434	0
2	582	115.129939281663	0
2	587	117.483285038329	0
2	592	118.227461663522	0
2	597	119.826155873428	0
2	602	119.95165433174	0
2	607	120.756290819648	0
2	612	121.159460645853	0
2	617	121.917437505972	0
2	622	122.235463920376	0
2	627	123.782075437629	0
2	632	125.821226346969	0
2	637	126.196436000182	0
2	642	126.287344123762	0
2	647	126.789607978831	0
2	652	127.440695330245	0
2	657	128.105425613569	0
2	662	129.924288095855	0
2	667	130.170988474105	0
2	672	130.88390579304	0
2	679	131.923192260506	0
2	682	131.982529261219	0.009783269032
2	687	134.046520401516	0
2	692	134.996515722385	0
2	697	135.874030710685	0
2	702	136.398822119859	0
2	707	136.490639819908	0
2	712	137.737599924263	0
2	717	139.516939907815	0
2	722	139.609695267862	0
2	727	140.738769151401	0
2	732	141.219783824238	0
2	739	142.601474598631	0
2	742	142.660811599344	0.035152061681
2	747	142.947041966771	0
2	752	143.433670564354	0
2	758	144.848212801301	0
2	763	145.001490866341	0
2	768	146.968367365179	0
2	773	147.22013230341	0
2	778	148.215025182911	0
2	783	149.793996567343	0
2	788	150.393761316192	0
2	793	151.659907354412	0
2	798	152.317180785757	0
2	805	152.978252889535	0
2	808	153.037589890248	0.043424734806
2	813	156.917779404834	0
2	818	157.433349877034	0
2	823	158.865959065274	0
2	828	164.248986237364	0
2	833	164.344188332943	0
2	838	164.703537189974	0
2	843	165.474206952895	0
2	848	166.157726396294	0
2	853	167.290725290341	0
2	858	173.413981645522	0
2	863	174.761750162656	0
2	868	174.893072557358	0
2	875	175.880742721123	0
2	878	175.940079721836	0.005244782626
2	883	178.0828449407	0
2	888	178.227283460781	0
2	893	179.836024000181	0
2	898	180.963790547278	0
2	903	181.771098596968	0
2	908	182.524110041778	0
2	913	184.568351258859	0
2	918	186.998126814921	0
2	923	187.524412463569	0
2	928	188.732903426846	0
2	933	188.802486208767	0
2	938	189.462902151985	0
2	943	189.615061481132	0
2	948	190.111577114036	0
2	953	196.09755960596	0
2	958	197.249822240606	0
2	963	197.469092388302	0
2	968	197.601214572603	0
2	973	199.789441349596	0
2	978	203.368012516307	0
2	983	204.411701366891	0
2	990	205.334560697639	0
2	993	205.393897698352	0.031236454568
2	998	205.901592224262	0
2	1003	206.915348439981	0
2	1009	207.104993715293	0.046437411107
2	1014	209.153379041299	0
2	1019	210.484694751928	0
2	1024	210.665783935477	0
2	1029	211.985151402373	0
2	1034	212.251536099384	0
2	1039	214.079634538807	0
2	1044	214.382261761929	0
2	1049	214.704161404703	0
2	1054	215.093776918904	0
2	1059	215.342034498687	0
2	1064	216.74657826175	0
2	1069	217.208531784386	0
2	1074	217.296842632546	0
2	1079	218.326154866075	0
2	1084	223.015878488579	0
2	1089	223.319234002497	0
2	1094	223.480537802263	0
2	1099	224.218872591183	0
2	1104	226.301149794865	0
2	1113	231.67465448198	0
2	1116	231.733991482693	0.019276594206
2	1121	231.793328483406	0.067149699749
2	1124	231.852665484119	0.007096205601
2	1129	234.219474573419	0
2	1134	234.563156271027	0
2	1139	234.647963740936	0
2	1144	236.980935904231	0
2	1149	237.093371031861	0
2	1154	239.623146699638	0
2	1161	240.01400302158	0
2	1164	240.073340022293	0.038874284206
2	1169	243.044300249932	0
2	1174	244.479566685864	0
2	1179	245.61643252325	0
2	1184	245.996777203211	0
2	1189	246.736240970155	0
2	1194	247.279594664946	0
2	1199	247.899992757131	0
2	1204	248.738896836119	0
2	1209	250.06967605002	0
2	1214	251.269084846735	0
2	1221	252.236212772021	0
2	1224	252.295549772734	0.027437207149
2	1231	253.757480878624	0
2	1234	253.816817879337	0.051547118944
2	1239	255.89105413645	0
2	1244	257.2658575019	0
2	1249	257.470201429754	0
2	1254	260.908432932972	0
2	1260	261.469785400822	0
2	1265	261.812415738399	0
2	1270	262.177327801323	0
2	1275	265.026930477291	0
2	1280	265.781485754399	0
2	1285	266.675839495344	0
2	1290	267.062679603977	0
2	1295	267.208167810851	0
2	1300	267.977796426876	0
2	1305	268.070089567989	0
2	1310	269.850613650933	0
2	1315	270.843478543505	0
2	1320	271.143667017795	0
2	1327	271.846128512574	0
2	1330	271.905465513287	0.007484538546
2	1335	272.636773161073	0
2	1340	272.789978761725	0
2	1345	273.780017088496	0
2	1350	274.185438994298	0
2	1355	274.440864813392	0
2	1360	274.69002687535	0
2	1365	274.993686892578	0
2	1370	275.607686043141	0
2	1375	276.434304926184	0
2	1380	277.207992820074	0
2	1385	277.70474300358	0
2	1390	278.309011946564	0
2	1395	279.540039347896	0
2	1400	280.638733135267	0
2	1405	280.878950034184	0
2	1410	281.630459957759	0
2	1415	281.966565098088	0
2	1420	282.629535122252	0
2	1425	284.511298058614	0
2	1430	284.679388017623	0
2	1435	285.298501751975	0
2	1440	285.688674289674	0
2	1445	285.765977279983	0
2	1450	287.77129832117	0
2	1455	289.737564104819	0
2	1460	290.230237221815	0
2	1465	290.775472112453	0
2	1470	292.995541180959	0
2	1475	293.739815912655	0
2	1480	294.979941062942	0
2	1487	296.034638594119	0
2	1490	296.093975594832	0.045479234803
2	1495	296.512185341277	0
2	1500	297.653974303259	0
2	1505	301.931842699854	0
2	1511	302.263287144958	0
2	1516	302.588080930666	0
2	1521	302.867724650358	0
2	1526	304.011475148426	0
2	1531	304.30228184272	0
2	1536	305.090202634571	0
2	1541	306.984058152096	0
2	1548	307.732961294054	0
2	1553	307.792298294767	0.005748364421
2	1556	307.85163529548	0.05733048524
2	1561	309.606463215291	0
2	1566	311.023495001235	0
2	1571	313.197887008014	0
2	1576	313.423050761719	0
2	1581	313.815847589102	0
2	1586	315.164346292516	0
2	1591	317.203465415603	0
2	1596	317.325355873242	0
2	1601	321.253523207602	0
2	1606	321.843793593392	0
2	1611	323.025410532897	0
2	1616	323.351767327781	0
2	1621	324.674041925802	0
2	1626	324.910298746353	0
2	1631	325.127305899887	0
2	1636	325.581608012373	0
2	1641	327.633045091216	0
2	1646	329.221625437942	0
2	1651	330.172348433626	0
2	1656	330.266413899925	0
2	1661	331.33170417894	0
2	1666	332.413261585167	0
2	1671	332.697340543433	0
2	1676	332.949630397068	0
2	1681	333.11391291531	0
2	1686	333.731656892087	0
2	1691	333.99646904989	0
2	1696	334.965576259622	0
2	1701	335.828068054182	0
2	1706	336.002434309361	0
2	1711	336.647559419133	0
2	1716	339.285696917651	0
2	1721	339.629345271164	0
2	1726	340.679863012608	0
2	1731	341.748043908905	0
2	1736	342.575525956622	0
2	1741	343.862810971635	0
2	1746	344.631026586737	0
2	1751	344.765420812078	0
2	1756	346.10864060718	0
2	1762	347.613025021405	0
2	1767	350.466223292237	0
2	1772	351.559865276072	0
2	1779	351.87398284746	0
2	1784	351.933319848173	0.016824603882
2	1787	351.992656848886	0.022046351771
2	1792	354.858971883725	0
2	1797	355.046419576153	0
2	1802	355.475225287222	0
2	1807	356.156237890523	0
2	1812	358.396608062795	0
2	1817	359.639330356537	0
2	1822	361.038127784272	0
2	1827	361.76547977626	0
2	1832	362.735456491272	0
2	1837	362.990256308824	0
2	1842	363.602418068955	0
2	1847	363.863916730535	0
2	1852	365.428030196878	0
2	1857	368.509310131983	0
2	1862	368.81841023574	0
2	1867	369.227876759941	0
2	1872	369.778977479876	0
2	1877	370.919271594717	0
2	1882	371.195140492376	0
2	1887	372.520249083447	0
2	1892	372.687406250385	0
2	1897	373.173787252794	0
2	1902	373.818926821246	0
2	1907	374.573940251913	0
2	1912	375.056690468292	0
2	1917	375.177058422195	0
2	1922	377.112092057179	0
2	1927	377.716021114848	0
2	1934	378.182223036568	0
2	1937	378.241560037281	0.006698577558
2	1942	379.429526297669	0
2	1947	379.938261267682	0
2	1952	382.388643281073	0
2	1957	384.827830655459	0
2	1962	385.27518381752	0
2	1967	385.874789085609	0
2	1972	387.673441117076	0
2	1977	387.74248014047	0
2	1982	388.065235205027	0
2	1987	395.023807429984	0
2	1992	398.670633616917	0
2	1999	406.279507591425	0
2	2002	406.338844592138	0.029588107587
2	2007	406.721304057603	0
2	2013	406.910949332915	0.088452637456
2	2018	407.133988287502	0
2	2023	408.853764414956	0
2	2028	409.504747795982	0
2	2033	410.103955365949	0
2	2038	410.328773711726	0
2	2043	410.657696851746	0
2	2048	411.992987612513	0
2	2053	412.800227271222	0
2	2058	412.995117561798	0
2	2063	415.521634350549	0
2	2068	415.686563445745	0
2	2073	417.677147013044	0
2	2078	418.112837743402	0
2	2083	418.816284912952	0
2	2088	419.325458974703	0
2	2093	421.697211288721	0
2	2098	424.38181944456	0
2	2103	426.409101265737	0
2	2108	427.19255091686	0
2	2113	427.337309696081	0
2	2118	427.942678504594	0
2	2123	428.124035630499	0
2	2128	428.845450859334	0
2	2133	431.107751701244	0
2	2138	433.790207990304	0
2	2145	434.395589697561	0
2	2148	434.454926698274	0.008127599726
2	2153	435.406935864626	0
2	2158	437.453544461894	0
2	2163	437.64325229737	0
2	2168	438.003657227293	0
2	2173	438.150172883534	0
2	2178	438.979573103831	0
2	2183	439.519949422386	0
2	2188	440.468715687782	0
2	2193	440.853917266823	0
2	2198	441.083447567148	0
2	2205	442.10853469695	0
2	2208	442.167871697663	0.057955980458
2	2213	443.544200973648	0
2	2218	444.033034911492	0
2	2223	444.397566134199	0
2	2228	444.620910979365	0
2	2233	445.105902343166	0
2	2238	445.506418633488	0
2	2243	446.901185050466	0
2	2248	448.286256513526	0
2	2253	449.115885619938	0
2	2258	449.753061559604	0
2	2264	449.942706834916	0.064531950697
2	2269	450.329990655971	0
2	2274	451.934477511885	0
2	2279	455.7406559873	0
2	2284	458.548012004614	0
2	2291	459.229142710237	0
2	2294	459.28847971095	0.013140626323
2	2299	461.032796916663	0
2	2304	461.479577343722	0
2	2309	461.797946402082	0
2	2314	463.37970895992	0
2	2319	465.591356975559	0
2	2324	468.447858060582	0
2	2329	468.777526063464	0
2	2334	468.966076217682	0
2	2339	469.296730924334	0
2	2344	470.894584327427	0
2	2349	471.597472465666	0
2	2354	471.865038363414	0
2	2359	472.442397524037	0
2	2364	472.517411076174	0
2	2369	473.096977101278	0
2	2374	473.4626830391	0
2	2379	474.259028292954	0
2	2384	475.091305827732	0
2	2389	479.067129904559	0
2	2394	479.598210442961	0
2	2399	480.709787496987	0
2	2404	481.895950842378	0
2	2409	482.111605215851	0
2	2414	482.855828088702	0
2	2419	483.296798520042	0
2	2424	484.212168266576	0
2	2429	484.75073990759	0
2	2434	486.280900826289	0
2	2439	488.306469936002	0
2	2444	488.809750674263	0
2	2449	489.579652677739	0
2	2454	491.113808996926	0
2	2459	491.350485508724	0
2	2464	493.452982357687	0
2	2469	494.779134014092	0
2	2474	495.763583337661	0
2	2479	498.059875036908	0
2	2484	498.975597215631	0
2	2489	502.055219211097	0
2	2494	502.476453536952	0
2	2499	503.153048386264	0
2	2504	504.65678847555	0
2	2509	504.965408184098	0
2	2515	507.385054660197	0
2	2520	508.370338541192	0
2	2525	508.575351724273	0
2	2530	509.742527020108	0
2	2535	511.410948111611	0
2	2540	511.593240318577	0
2	2545	511.747965484876	0
2	2550	512.917140662783	0
2	2555	513.159692104403	0
2	2560	514.240163058741	0
2	2565	516.029370522946	0
2	2570	516.288040203537	0
2	2575	516.877678851478	0
2	2580	517.772967649122	0
2	2585	519.69327537202	0
2	2590	520.260727863411	0
2	2595	520.923167777101	0
2	2600	521.23476632317	0
2	2605	523.620081147906	0
2	2610	524.943336829787	0
2	2615	525.332855494215	0
2	2620	525.602436485542	0
2	2625	527.161272190318	0
2	2630	527.819004166794	0
2	2635	529.381032802229	0
2	2640	532.069627666013	0
2	2645	532.22018210382	0
2	2650	534.792767176261	0
2	2655	536.576981632119	0
2	2660	538.27999880832	0
2	2665	538.704157124442	0
2	2670	539.243563613943	0
2	2675	541.12926833427	0
2	2680	541.964092894998	0
2	2685	543.693577009932	0
2	2690	544.825439432018	0
2	2695	546.27628169311	0
2	2700	547.017436655506	0
2	2705	547.570956500809	0
2	2710	548.058571835495	0
2	2715	548.73461010135	0
2	2720	548.966808221957	0
2	2725	550.011673183181	0
2	2730	551.856774122104	0
2	2735	553.873726125814	0
2	2740	557.240776537716	0
2	2747	558.203274152881	0
2	2750	558.262611153594	0.01536881557
2	2755	559.451527694772	0
2	2760	559.769662736416	0
2	2766	560.394614038127	0
2	2771	561.519280210772	0
2	2776	561.741526258766	0
2	2781	562.291626485728	0
2	2786	563.163000423307	0
2	2791	565.961780422967	0
2	2796	569.820429043789	0
2	2801	570.77813330988	0
2	2806	571.761682297015	0
2	2811	572.507052752715	0
2	2816	572.6551474262	0
2	2821	572.793367392323	0
2	2826	572.887852077271	0
2	2831	574.356499633008	0
2	2836	574.76859462493	0
2	2841	575.256896952789	0
2	2846	577.42600199212	0
2	2851	577.552968093376	0
2	2858	577.66426848653	0
2	2861	577.723605487243	0.02101774859
2	2866	578.617315122723	0
2	2871	579.342813098885	0
2	2876	581.429077987436	0
2	2881	582.23021567474	0
2	2886	582.331411874007	0
2	2891	583.44765171132	0
2	2896	584.23032985805	0
2	2901	585.750361162506	0
2	2906	586.428835664149	0
2	2911	586.975344836445	0
2	2916	588.088748776553	0
2	2921	589.006393499223	0
2	2926	589.489508829901	0
2	2933	589.956856935562	0
2	2936	590.016193936275	0.004579241149
2	2941	590.115711107801	0
2	2946	592.563031840943	0
2	2951	594.980456108134	0
2	2956	595.157617280548	0
2	2961	596.073109093543	0
2	2966	597.983158491911	0
2	2971	598.806925353761	0
2	2976	599.064011053978	0
2	2981	600.996944591836	0
2	2986	601.495776029881	0
2	2991	602.319295769588	0
2	2996	604.031816688218	0
2	3001	605.876480535395	0
2	3006	611.09232868625	0
2	3013	612.520089043445	0
2	3017	612.709734318757	0.180699880874
2	3022	613.682508660452	0
2	3027	617.956911739725	0
2	3032	618.431321970662	0
2	3037	620.915978905376	0
2	3042	621.119975433566	0
2	3047	621.431457164702	0
2	3052	622.312128653463	0
2	3057	622.860969282804	0
2	3062	623.211153009442	0
2	3067	623.957283940204	0
2	3072	624.628073324431	0
2	3077	625.465580099742	0
2	3082	625.996994934309	0
2	3087	626.70261143395	0
2	3092	627.114283627186	0
2	3097	630.431492617834	0
2	3102	631.82282571036	0
2	3107	632.344661898284	0
2	3112	633.367206813727	0
2	3117	635.609220545264	0
2	3122	636.034213976809	0
2	3127	636.728096688352	0
2	3134	636.867665963363	0
2	3137	636.927002964076	0.056493493356
2	3142	640.105675659328	0
2	3147	640.87415256589	0
2	3152	642.155317518837	0
2	3157	643.542982334034	0
2	3162	643.955424294509	0
2	3167	645.425554604234	0
2	3172	648.855381726183	0
2	3177	649.205700476279	0
2	3182	649.382443113547	0
2	3187	649.805142056314	0
2	3192	650.61385271065	0
2	3197	650.990255153132	0
2	3202	651.400699311117	0
2	3207	651.495745609948	0
2	3212	654.137831427418	0
2	3217	655.479130417662	0
2	3222	657.364732955113	0
2	3227	658.46666915336	0
2	3232	658.752494600518	0
2	3237	659.344286044076	0
2	3242	661.713554472954	0
2	3247	662.888871261262	0
2	3252	664.193387279956	0
2	3257	664.727925362927	0
2	3262	667.159112572569	0
2	3268	667.80068458594	0
2	3275	670.189169328177	0
2	3278	670.24850632889	0.011729455937
2	3283	671.774783642838	0
2	3288	673.318669628718	0
2	3293	673.944069704461	0
2	3298	674.347602261066	0
2	3303	675.928557304163	0
2	3308	676.048337460007	0
2	3313	676.610336788265	0
2	3318	676.717547044889	0
2	3323	678.99037702101	0
2	3328	679.494070231102	0
2	3333	679.881687648577	0
2	3338	680.020239678699	0
2	3343	680.465177055674	0
2	3348	680.568417262485	0
2	3353	681.118391195234	0
2	3358	681.506603446895	0
2	3365	681.934091360202	0
2	3368	681.993428360915	0.053361678547
2	3373	683.821280178337	0
2	3378	684.481115521809	0
2	3383	685.782451830749	0
2	3388	686.16429035135	0
2	3393	687.167017222562	0
2	3398	688.662503875923	0
2	3403	688.95007713484	0
2	3408	689.564113383612	0
2	3413	689.778097017984	0
2	3418	694.202460572641	0
2	3423	697.959491595138	0
2	3428	698.952656917886	0
2	3433	700.448834390943	0
2	3438	702.21570588482	0
2	3443	702.29196051002	0
2	3448	703.109540438041	0
2	3453	704.463060335287	0
2	3458	705.611323746127	0
2	3463	707.91509814557	0
2	3468	708.29744692208	0
2	3473	709.088659511247	0
2	3478	709.244631326372	0
2	3483	709.858277920755	0
2	3488	711.741602348235	0
2	3493	711.853814411418	0
2	3498	717.275545333691	0
2	3503	718.364211625614	0
2	3508	718.926580435241	0
2	3513	720.200791482313	0
2	3519	721.142776819962	0
2	3524	725.19108928049	0
2	3529	725.556678945474	0
2	3534	727.069019428952	0
2	3539	727.866962424153	0
2	3544	728.84167129138	0
2	3551	730.280863153594	0
2	3554	730.340200154307	0.05810658091
2	3559	730.667726056581	0
2	3564	733.259187798278	0
2	3569	734.567517313229	0
2	3574	736.745488443518	0
2	3579	737.015376066414	0
2	3584	737.371685520136	0
2	3589	737.601333009047	0
2	3594	739.199444425165	0
2	3599	739.285092542192	0
2	3604	742.159736320404	0
2	3609	742.25736606069	0
2	3614	743.232082792185	0
2	3621	746.097140616837	0
2	3624	746.15647761755	0.027776648797
2	3629	746.258976585299	0
2	3634	746.332689533775	0
2	3639	747.171315293227	0
2	3644	747.348215608474	0
2	3649	747.68421600969	0
2	3654	749.149530514451	0
2	3659	749.553063977343	0
2	3664	750.672737888477	0
2	3669	751.129996403566	0
2	3674	752.569142385943	0
2	3679	752.899084313833	0
2	3684	754.046552684118	0
2	3689	754.525862101101	0
2	3694	754.792251107412	0
2	3699	755.396931662657	0
2	3704	755.952929993334	0
2	3709	756.105773418341	0
2	3714	757.645324840081	0
2	3719	758.692424711126	0
2	3726	760.317025045085	0
2	3729	760.376362045798	0.007203207797
2	3734	761.027275513843	0
2	3739	761.811354211945	0
2	3744	761.889985911927	0
2	3749	764.207036171865	0
2	3754	764.387569693007	0
2	3759	764.649667896713	0
2	3764	765.123560440821	0
2	3770	765.422784904483	0
2	3775	765.893712965126	0
2	3780	768.526050858291	0
2	3785	773.10775441234	0
2	3790	774.269463556006	0
2	3795	776.246524483443	0
2	3800	776.558686336057	0
2	3805	776.947635873347	0
2	3810	777.964628306018	0
2	3815	780.10603444891	0
2	3820	780.842262070447	0
2	3827	781.382398908225	0
2	3830	781.441735908938	0.055096763208
2	3835	781.937876441554	0
2	3840	783.140798734987	0
2	3845	784.658025266883	0
2	3852	785.74825345634	0
2	3855	785.807590457053	0.021991326586
2	3860	786.758493723456	0
2	3865	788.050044601875	0
2	3870	788.257085011063	0
2	3875	789.089562974061	0
2	3880	790.269450768413	0
2	3885	790.495770050494	0
2	3890	798.468287522433	0
2	3895	798.728890817261	0
2	3900	800.179372215088	0
2	3905	800.3827440189	0
2	3910	802.796707003156	0
2	3915	803.006217882591	0
2	3920	803.718750499782	0
2	3925	804.199059156803	0
2	3930	804.467424496453	0
2	3935	805.268534611832	0
2	3940	805.750377775732	0
2	3945	805.892290420797	0
2	3950	807.25934153508	0
2	3955	807.322129070481	0
2	3960	809.16061219326	0
2	3965	810.403420040933	0
2	3970	813.395075913105	0
2	3975	814.152311472579	0
2	3980	814.300865733031	0
2	3985	816.650302188123	0
2	3990	816.857335682754	0
2	3995	816.978343988321	0
2	4000	817.07847019404	0
2	4005	817.184606306015	0
2	4010	818.055281289774	0
2	4015	818.175456873103	0
2	4021	819.140032393516	0
2	4026	819.710191974841	0
2	4031	821.420975777471	0
2	4036	824.147567203546	0
2	4041	824.322417051918	0
2	4046	826.132492321842	0
2	4051	827.877413585562	0
2	4056	828.863983300118	0
2	4061	831.009369003378	0
2	4066	831.324584452122	0
2	4071	832.002266939129	0
2	4076	832.518406922453	0
2	4081	833.489726627208	0
2	4086	836.500506640585	0
2	4091	837.10780535605	0
2	4096	837.17610774126	0
2	4101	837.525824868004	0
2	4106	839.344866307402	0
2	4111	839.463570177018	0
2	4116	840.944251372852	0
2	4121	841.13050477812	0
2	4126	843.417512919124	0
2	4131	844.287855456598	0
2	4136	846.241588061798	0
2	4141	846.493558979236	0
2	4146	847.502513408823	0
2	4151	849.005794860389	0
2	4156	849.113568352023	0
2	4161	849.395489450885	0
2	4166	849.651107915791	0
2	4171	850.17206746974	0
2	4178	854.708561751745	0
2	4181	854.767898752458	0.012350089641
2	4186	855.799613105255	0
2	4191	856.169886366508	0
2	4196	856.735601418737	0
2	4201	858.993409616046	0
2	4206	859.21236369295	0
2	4211	859.956742123446	0
2	4216	860.037558916845	0
2	4221	860.22649889088	0
2	4226	860.945184996409	0
2	4231	862.024192976318	0
2	4236	862.190750972549	0
2	4241	862.314116730936	0
2	4246	862.881411793296	0
2	4251	865.906853758317	0
2	4256	868.988220629897	0
2	4261	870.058710916021	0
2	4266	870.898145755734	0
2	4272	871.483464653271	0
2	4277	872.164596124039	0
2	4282	873.806811809064	0
2	4287	874.363638005069	0
2	4292	875.515809303589	0
2	4297	876.264606772492	0
2	4302	877.03615571905	0
2	4307	878.010493571618	0
2	4312	879.435453492003	0
2	4317	881.148669757498	0
2	4322	881.826694644452	0
2	4327	882.362667908261	0
2	4332	882.805449743793	0
2	4337	883.446214888674	0
2	4342	884.201673123188	0
2	4347	885.324380814922	0
2	4352	885.468277300714	0
2	4357	886.390458997117	0
2	4362	886.86890061615	0
2	4367	887.306106482448	0
2	4372	887.819519207073	0
2	4377	888.082884742337	0
2	4382	890.213368414408	0
2	4387	892.389914896861	0
2	4392	893.22609150009	0
2	4397	894.860182875379	0
2	4402	894.9711779829	0
2	4409	896.990470003267	0
2	4412	897.04980700398	0.047400020832
2	4417	898.732795026623	0
2	4422	899.40375276004	0
2	4427	899.906122663941	0
2	4432	900.380883010755	0
2	4437	900.499971444007	0
2	4442	901.483344617141	0
2	4447	905.118096332318	0
2	4452	906.866178783701	0
2	4457	907.122893208324	0
2	4462	907.638091472932	0
2	4467	908.875030601802	0
2	4472	909.380441841951	0
2	4477	909.579534089058	0
2	4482	909.655985598582	0
2	4487	911.952574439496	0
2	4492	913.472137055263	0
2	4497	914.32528324758	0
2	4502	916.720113939893	0
2	4507	917.004979566212	0
2	4512	917.133451645159	0
2	4517	917.647827954814	0
2	4523	918.708451168242	0
2	4528	922.053814938947	0
2	4533	922.596057682572	0
2	4538	924.083164318432	0
2	4543	925.54889452588	0
2	4548	931.024348739861	0
2	4553	931.73010200438	0
2	4558	932.011680877243	0
2	4563	933.322825281253	0
2	4568	933.862477776585	0
2	4573	935.187230901118	0
2	4578	935.3536538935	0
2	4583	935.458409767414	0
2	4588	936.682301858231	0
2	4593	938.347018666227	0
2	4598	938.913693702478	0
2	4603	939.814266473392	0
2	4608	939.904702205981	0
2	4613	940.136903069908	0
2	4618	940.40770070871	0
2	4623	942.139578782229	0
2	4628	943.626192299731	0
2	4635	944.482167764543	0
2	4638	944.541504765256	0.049151763319
2	4643	945.684451947545	0
2	4648	945.873760827238	0
2	4653	946.6093121151	0
2	4660	947.271115932714	0
2	4663	947.330452933427	0.003444821994
2	4668	948.511590825859	0
2	4673	951.399365027368	0
2	4678	951.493863638108	0
2	4683	951.588474560499	0
2	4688	951.671991717775	0
2	4693	952.016876213752	0
2	4698	954.319270344714	0
2	4703	954.625386911155	0
2	4708	955.175433700759	0
2	4713	956.789095944284	0
2	4718	958.260317394763	0
2	4723	959.663067059	0
2	4728	959.963867954806	0
2	4733	960.594362835303	0
2	4738	960.896998568149	0
2	4743	961.635971577619	0
2	4748	962.677843327559	0
2	4755	963.380632773019	0
2	4758	963.439969773732	0.050724503581
2	4763	966.764660780468	0
2	4768	967.676514885177	0
2	4774	968.883890660575	0
2	4779	969.049532641354	0
2	4786	969.216939539204	0
2	4789	969.276276539917	0.039864316314
2	4794	970.307162625087	0
2	4799	970.369735734231	0
2	4804	972.504433670189	0
2	4809	973.370286730361	0
2	4814	974.166170512867	0
2	4819	974.675698928751	0
2	4824	975.816463550488	0
2	4829	976.558993984003	0
2	4834	978.495207624188	0
2	4839	978.845372296504	0
2	4844	979.401663235479	0
2	4849	980.204254806744	0
2	4854	981.356623715062	0
2	4859	982.955674112981	0
2	4864	985.459467609091	0
2	4869	988.385348835435	0
2	4874	992.308712307806	0
2	4879	993.213098315501	0
2	4884	994.904738536019	0
2	4889	994.988542945526	0
2	4894	995.437371876919	0
2	4899	997.186610451341	0
2	4904	997.275461562937	0
2	4909	997.51569333433	0
2	4914	999.067099049713	0
2	4919	999.511305104671	0
2	4926	999.834660758059	0
2	4929	999.893997758772	0.050093755756
3	5	0.345361658553	0
3	10	1.876188297215	0
3	15	2.283688643116	0
3	20	3.93667827883	0
3	25	4.272380195785	0
3	30	5.254886668313	0
3	35	5.422896846798	0
3	40	6.34952491431	0
3	45	6.723567816294	0
3	50	8.892513223915	0
3	55	9.021893058323	0
3	60	10.445338920578	0
3	65	12.147199687933	0
3	70	12.346999165459	0
3	75	12.526832095752	0
3	80	12.689550239815	0
3	85	13.248176266181	0
3	90	13.820308967779	0
3	95	14.222894490646	0
3	100	14.709470768776	0
3	105	15.840984683177	0
3	110	16.698322466778	0
3	115	17.945801114292	0
3	120	18.103731404466	0
3	125	18.200144853757	0
3	132	19.360397534505	0
3	135	19.419734535218	2
3	140	20.024788440096	0
3	145	20.59858692769	0
3	150	21.442555017453	0
3	155	22.267320612754	0
3	160	23.304934744397	0
3	165	23.496581837268	0
3	170	24.781550114395	0
3	175	26.49261414679	0
3	180	27.634146739215	0
3	185	30.166018930445	0
3	190	30.365588959217	0
3	195	30.888211076528	0
3	200	31.013954006282	0
3	205	31.235624676938	0
3	210	31.51366590364	0
3	217	31.592791636597	0
3	220	31.65212863731	2
3	225	32.333098437681	0
3	230	32.779492566802	0
3	235	33.941647322662	0
3	240	34.099520292521	0
3	245	34.384736462353	0
3	250	35.167202532511	0
3	256	36.211217003272	0
3	261	38.156851286535	0
3	266	38.235385160049	0
3	271	38.45879395135	0
3	276	40.34625326459	0
3	281	40.490855377058	0
3	286	43.298638144742	0
3	291	43.538919668717	0
3	296	44.093513695467	0
3	301	47.711213563459	0
3	306	49.602729583895	0
3	311	51.556982923126	0
3	316	53.64004840129	0
3	321	54.403157472784	0
3	326	54.561519982754	0
3	331	55.131491734829	0
3	336	60.043359007701	0
3	341	60.250620061441	0
3	346	63.927116159518	0
3	351	64.267181218409	0
3	356	64.336149111122	0
3	361	65.322774690458	0
3	366	65.616701592444	0
3	371	66.056301528644	0
3	376	68.47671460562	0
3	381	69.78403297953	0
3	386	70.285346782674	0
3	391	71.099505737249	0
3	396	71.312670890534	0
3	401	74.166729148662	0
3	406	74.674473473691	0
3	413	74.84117246146	0
3	416	74.900509462173	2
3	421	77.115231533965	0
3	426	79.029923030733	0
3	433	79.225980099338	0
3	436	79.285317100051	2
3	441	80.17000666142	0
3	448	84.376561732807	0
3	451	84.43589873352	2
3	456	85.956865017714	0
3	461	87.01642164904	0
3	466	88.474542935358	0
3	471	88.931384840953	0
3	476	90.981989844665	0
3	481	92.569518415465	0
3	490	92.935664178449	0
3	493	92.995001179162	2
3	496	93.054338179875	2
3	501	93.632511200538	0
3	507	97.36219328662	0
3	512	97.464015769211	0
3	517	98.985439786746	0
3	522	99.122489295898	0
3	527	100.078788877073	0
3	532	101.789286611573	0
3	537	104.221973809656	0
3	542	105.146765042515	0
3	547	105.220213309826	0
3	552	108.597973855663	0
3	557	108.822118919671	0
3	562	110.003680660409	0
3	567	110.460059042699	0
3	572	114.167432317354	0
3	577	114.401586109434	0
3	582	115.129939281663	0
3	587	117.483285038329	0
3	592	118.227461663522	0
3	597	119.826155873428	0
3	602	119.95165433174	0
3	607	120.756290819648	0
3	612	121.159460645853	0
3	617	121.917437505972	0
3	622	122.235463920376	0
3	627	123.782075437629	0
3	632	125.821226346969	0
3	637	126.196436000182	0
3	642	126.287344123762	0
3	647	126.789607978831	0
3	652	127.440695330245	0
3	657	128.105425613569	0
3	662	129.924288095855	0
3	667	130.170988474105	0
3	672	130.88390579304	0
3	679	131.923192260506	0
3	682	131.982529261219	2
3	687	134.046520401516	0
3	692	134.996515722385	0
3	697	135.874030710685	0
3	702	136.398822119859	0
3	707	136.490639819908	0
3	712	137.737599924263	0
3	717	139.516939907815	0
3	722	139.609695267862	0
3	727	140.738769151401	0
3	732	141.219783824238	0
3	739	142.601474598631	0
3	742	142.660811599344	2
3	747	142.947041966771	0
3	752	143.433670564354	0
3	758	144.848212801301	0
3	763	145.001490866341	0
3	768	146.968367365179	0
3	773	147.22013230341	0
3	778	148.215025182911	0
3	783	149.793996567343	0
3	788	150.393761316192	0
3	793	151.659907354412	0
3	798	152.317180785757	0
3	805	152.978252889535	0
3	808	153.037589890248	2
3	813	156.917779404834	0
3	818	157.433349877034	0
3	823	158.865959065274	0
3	828	164.248986237364	0
3	833	164.344188332943	0
3	838	164.703537189974	0
3	843	165.474206952895	0
3	848	166.157726396294	0
3	853	167.290725290341	0
3	858	173.413981645522	0
3	863	174.761750162656	0
3	868	174.893072557358	0
3	875	175.880742721123	0
3	878	175.940079721836	2
3	883	178.0828449407	0
3	888	178.227283460781	0
3	893	179.836024000181	0
3	898	180.963790547278	0
3	903	181.771098596968	0
3	908	182.524110041778	0
3	913	184.568351258859	0
3	918	186.998126814921	0
3	923	187.524412463569	0
3	928	188.732903426846	0
3	933	188.802486208767	0
3	938	189.462902151985	0
3	943	189.615061481132	0
3	948	190.111577114036	0
3	953	196.09755960596	0
3	958	197.249822240606	0
3	963	197.469092388302	0
3	968	197.601214572603	0
3	973	199.789441349596	0
3	978	203.368012516307	0
3	983	204.411701366891	0
3	990	205.334560697639	0
3	993	205.393897698352	2
3	998	205.901592224262	0
3	1003	206.915348439981	0
3	1009	207.104993715293	2
3	1014	209.153379041299	0
3	1019	210.484694751928	0
3	1024	210.665783935477	0
3	1029	211.985151402373	0
3	1034	212.251536099384	0
3	1039	214.079634538807	0
3	1044	214.382261761929	0
3	1049	214.704161404703	0
3	1054	215.093776918904	0
3	1059	215.342034498687	0
3	1064	216.74657826175	0
3	1069	217.208531784386	0
3	1074	217.296842632546	0
3	1079	218.326154866075	0
3	1084	223.015878488579	0
3	1089	223.319234002497	0
3	1094	223.480537802263	0
3	1099	224.218872591183	0
3	1104	226.301149794865	0
3	1113	231.67465448198	0
3	1116	231.733991482693	2
3	1121	231.793328483406	2
3	1124	231.852665484119	2
3	1129	234.219474573419	0
3	1134	234.563156271027	0
3	1139	234.647963740936	0
3	1144	236.980935904231	0
3	1149	237.093371031861	0
3	1154	239.623146699638	0
3	1161	240.01400302158	0
3	1164	240.073340022293	2
3	1169	243.044300249932	0
3	1174	244.479566685864	0
3	1179	245.61643252325	0
3	1184	245.996777203211	0
3	1189	246.736240970155	0
3	1194	247.279594664946	0
3	1199	247.899992757131	0
3	1204	248.738896836119	0
3	1209	250.06967605002	0
3	1214	251.269084846735	0
3	1221	252.236212772021	0
3	1224	252.295549772734	2
3	1231	253.757480878624	0
3	1234	253.816817879337	2
3	1239	255.89105413645	0
3	1244	257.2658575019	0
3	1249	257.470201429754	0
3	1254	260.908432932972	0
3	1260	261.469785400822	0
3	1265	261.812415738399	0
3	1270	262.177327801323	0
3	1275	265.026930477291	0
3	1280	265.781485754399	0
3	1285	266.675839495344	0
3	1290	267.062679603977	0
3	1295	267.208167810851	0
3	1300	267.977796426876	0
3	1305	268.070089567989	0
3	1310	269.850613650933	0
3	1315	270.843478543505	0
3	1320	271.143667017795	0
3	1327	271.846128512574	0
3	1330	271.905465513287	2
3	1335	272.636773161073	0
3	1340	272.789978761725	0
3	1345	273.780017088496	0
3	1350	274.185438994298	0
3	1355	274.440864813392	0
3	1360	274.69002687535	0
3	1365	274.993686892578	0
3	1370	275.607686043141	0
3	1375	276.434304926184	0
3	1380	277.207992820074	0
3	1385	277.70474300358	0
3	1390	278.309011946564	0
3	1395	279.540039347896	0
3	1400	280.638733135267	0
3	1405	280.878950034184	0
3	1410	281.630459957759	0
3	1415	281.966565098088	0
3	1420	282.629535122252	0
3	1425	284.511298058614	0
3	1430	284.679388017623	0
3	1435	285.298501751975	0
3	1440	285.688674289674	0
3	1445	285.765977279983	0
3	1450	287.77129832117	0
3	1455	289.737564104819	0
3	1460	290.230237221815	0
3	1465	290.775472112453	0
3	1470	292.995541180959	0
3	1475	293.739815912655	0
3	1480	294.979941062942	0
3	1487	296.034638594119	0
3	1490	296.093975594832	2
3	1495	296.512185341277	0
3	1500	297.653974303259	0
3	1505	301.931842699854	0
3	1511	302.263287144958	0
3	1516	302.588080930666	0
3	1521	302.867724650358	0
3	1526	304.011475148426	0
3	1531	304.30228184272	0
3	1536	305.090202634571	0
3	1541	306.984058152096	0
3	1548	307.732961294054	0
3	1553	307.792298294767	2
3	1556	307.85163529548	2
3	1561	309.606463215291	0
3	1566	311.023495001235	0
3	1571	313.197887008014	0
3	1576	313.423050761719	0
3	1581	313.815847589102	0
3	1586	315.164346292516	0
3	1591	317.203465415603	0
3	1596	317.325355873242	0
3	1601	321.253523207602	0
3	1606	321.843793593392	0
3	1611	323.025410532897	0
3	1616	323.351767327781	0
3	1621	324.674041925802	0
3	1626	324.910298746353	0
3	1631	325.127305899887	0
3	1636	325.581608012373	0
3	1641	327.633045091216	0
3	1646	329.221625437942	0
3	1651	330.172348433626	0
3	1656	330.266413899925	0
3	1661	331.33170417894	0
3	1666	332.413261585167	0
3	1671	332.697340543433	0
3	1676	332.949630397068	0
3	1681	333.11391291531	0
3	1686	333.731656892087	0
3	1691	333.99646904989	0
3	1696	334.965576259622	0
3	1701	335.828068054182	0
3	1706	336.002434309361	0
3	1711	336.647559419133	0
3	1716	339.285696917651	0
3	1721	339.629345271164	0
3	1726	340.679863012608	0
3	1731	341.748043908905	0
3	1736	342.575525956622	0
3	1741	343.862810971635	0
3	1746	344.631026586737	0
3	1751	344.765420812078	0
3	1756	346.10864060718	0
3	1762	347.613025021405	0
3	1767	350.466223292237	0
3	1772	351.559865276072	0
3	1779	351.87398284746	0
3	1784	351.933319848173	2
3	1787	351.992656848886	2
3	1792	354.858971883725	0
3	1797	355.046419576153	0
3	1802	355.475225287222	0
3	1807	356.156237890523	0
3	1812	358.396608062795	0
3	1817	359.639330356537	0
3	1822	361.038127784272	0
3	1827	361.76547977626	0
3	1832	362.735456491272	0
3	1837	362.990256308824	0
3	1842	363.602418068955	0
3	1847	363.863916730535	0
3	1852	365.428030196878	0
3	1857	368.509310131983	0
3	1862	368.81841023574	0
3	1867	369.227876759941	0
3	1872	369.778977479876	0
3	1877	370.919271594717	0
3	1882	371.195140492376	0
3	1887	372.520249083447	0
3	1892	372.687406250385	0
3	1897	373.173787252794	0
3	1902	373.818926821246	0
3	1907	374.573940251913	0
3	1912	375.056690468292	0
3	1917	375.177058422195	0
3	1922	377.112092057179	0
3	1927	377.716021114848	0
3	1934	378.182223036568	0
3	1937	378.241560037281	2
3	1942	379.429526297669	0
3	1947	379.938261267682	0
3	1952	382.388643281073	0
3	1957	384.827830655459	0
3	1962	385.27518381752	0
3	1967	385.874789085609	0
3	1972	387.673441117076	0
3	1977	387.74248014047	0
3	1982	388.065235205027	0
3	1987	395.023807429984	0
3	1992	398.670633616917	0
3	1999	406.279507591425	0
3	2002	406.338844592138	2
3	2007	406.721304057603	0
3	2013	406.910949332915	2
3	2018	407.133988287502	0
3	2023	408.853764414956	0
3	2028	409.504747795982	0
3	2033	410.103955365949	0
3	2038	410.328773711726	0
3	2043	410.657696851746	0
3	2048	411.992987612513	0
3	2053	412.800227271222	0
3	2058	412.995117561798	0
3	2063	415.521634350549	0
3	2068	415.686563445745	0
3	2073	417.677147013044	0
3	2078	418.112837743402	0
3	2083	418.816284912952	0
3	2088	419.325458974703	0
3	2093	421.697211288721	0
3	2098	424.38181944456	0
3	2103	426.409101265737	0
3	2108	427.19255091686	0
3	2113	427.337309696081	0
3	2118	427.942678504594	0
3	2123	428.124035630499	0
3	2128	428.845450859334	0
3	2133	431.107751701244	0
3	2138	433.790207990304	0
3	2145	434.395589697561	0
3	2148	434.454926698274	2
3	2153	435.406935864626	0
3	2158	437.453544461894	0
3	2163	437.64325229737	0
3	2168	438.003657227293	0
3	2173	438.150172883534	0
3	2178	438.979573103831	0
3	2183	439.519949422386	0
3	2188	440.468715687782	0
3	2193	440.853917266823	0
3	2198	441.083447567148	0
3	2205	442.10853469695	0
3	2208	442.167871697663	2
3	2213	443.544200973648	0
3	2218	444.033034911492	0
3	2223	444.397566134199	0
3	2228	444.620910979365	0
3	2233	445.105902343166	0
3	2238	445.506418633488	0
3	2243	446.901185050466	0
3	2248	448.286256513526	0
3	2253	449.115885619938	0
3	2258	449.753061559604	0
3	2264	449.942706834916	2
3	2269	450.329990655971	0
3	2274	451.934477511885	0
3	2279	455.7406559873	0
3	2284	458.548012004614	0
3	2291	459.229142710237	0
3	2294	459.28847971095	2
3	2299	461.032796916663	0
3	2304	461.479577343722	0
3	2309	461.797946402082	0
3	2314	463.37970895992	0
3	2319	465.591356975559	0
3	2324	468.447858060582	0
3	2329	468.777526063464	0
3	2334	468.966076217682	0
3	2339	469.296730924334	0
3	2344	470.894584327427	0
3	2349	471.597472465666	0
3	2354	471.865038363414	0
3	2359	472.442397524037	0
[...]
7	1435	285.298501751975	0
7	1440	285.688674289674	0
7	1445	285.765977279983	0
7	1450	287.77129832117	0
7	1455	289.737564104819	0
7	1460	290.230237221815	0
7	1465	290.775472112453	0
7	1470	292.995541180959	0
7	1475	293.739815912655	0
7	1480	294.979941062942	0
7	1487	296.034638594119	0
7	1490	296.093975594832	0
7	1495	296.512185341277	0
7	1500	297.653974303259	0
7	1505	301.931842699854	0
7	1511	302.263287144958	0
7	1516	302.588080930666	0
7	1521	302.867724650358	0
7	1526	304.011475148426	0
7	1531	304.30228184272	0
7	1536	305.090202634571	0
7	1541	306.984058152096	0
7	1548	307.732961294054	0
7	1553	307.792298294767	0
7	1556	307.85163529548	0
7	1561	309.606463215291	0
7	1566	311.023495001235	0
7	1571	313.197887008014	0
7	1576	313.423050761719	0
7	1581	313.815847589102	0
7	1586	315.164346292516	0
7	1591	317.203465415603	0
7	1596	317.325355873242	0
7	1601	321.253523207602	0
7	1606	321.843793593392	0
7	1611	323.025410532897	0
7	1616	323.351767327781	0
7	1621	324.674041925802	0
7	1626	324.910298746353	0
7	1631	325.127305899887	0
7	1636	325.581608012373	0
7	1641	327.633045091216	0
7	1646	329.221625437942	0
7	1651	330.172348433626	0
7	1656	330.266413899925	0
7	1661	331.33170417894	0
7	1666	332.413261585167	0
7	1671	332.697340543433	0
7	1676	332.949630397068	0
7	1681	333.11391291531	0
7	1686	333.731656892087	0
7	1691	333.99646904989	0
7	1696	334.965576259622	0
7	1701	335.828068054182	0
7	1706	336.002434309361	0
7	1711	336.647559419133	0
7	1716	339.285696917651	0
7	1721	339.629345271164	0
7	1726	340.679863012608	0
7	1731	341.748043908905	0
7	1736	342.575525956622	0
7	1741	343.862810971635	0
7	1746	344.631026586737	0
7	1751	344.765420812078	0
7	1756	346.10864060718	0
7	1762	347.613025021405	0
7	1767	350.466223292237	0
7	1772	351.559865276072	0
7	1779	351.87398284746	0
7	1784	351.933319848173	0
7	1787	351.992656848886	0
7	1792	354.858971883725	0
7	1797	355.046419576153	0
7	1802	355.475225287222	0
7	1807	356.156237890523	0
7	1812	358.396608062795	0
7	1817	359.639330356537	0
7	1822	361.038127784272	0
7	1827	361.76547977626	0
7	1832	362.735456491272	0
7	1837	362.990256308824	0
7	1842	363.602418068955	0
7	1847	363.863916730535	0
7	1852	365.428030196878	0
7	1857	368.509310131983	0
7	1862	368.81841023574	0
7	1867	369.227876759941	0
7	1872	369.778977479876	0
7	1877	370.919271594717	0
7	1882	371.195140492376	0
7	1887	372.520249083447	0
7	1892	372.687406250385	0
7	1897	373.173787252794	0
7	1902	373.818926821246	0
7	1907	374.573940251913	0
7	1912	375.056690468292	0
7	1917	375.177058422195	0
7	1922	377.112092057179	0
7	1927	377.716021114848	0
7	1934	378.182223036568	0
7	1937	378.241560037281	0
7	1942	379.429526297669	0
7	1947	379.938261267682	0
7	1952	382.388643281073	0
7	1957	384.827830655459	0
7	1962	385.27518381752	0
7	1967	385.874789085609	0
7	1972	387.673441117076	0
7	1977	387.74248014047	0
7	1982	388.065235205027	0
7	1987	395.023807429984	0
7	1992	398.670633616917	0
7	1999	406.279507591425	0
7	2002	406.338844592138	0
7	2007	406.721304057603	0
7	2013	406.910949332915	0
7	2018	407.133988287502	0
7	2023	408.853764414956	0
7	2028	409.504747795982	0
7	2033	410.103955365949	0
7	2038	410.328773711726	0
7	2043	410.657696851746	0
7	2048	411.992987612513	0
7	2053	412.800227271222	0
7	2058	412.995117561798	0
7	2063	415.521634350549	0
7	2068	415.686563445745	0
7	2073	417.677147013044	0
7	2078	418.112837743402	0
7	2083	418.816284912952	0
7	2088	419.325458974703	0
7	2093	421.697211288721	0
7	2098	424.38181944456	0
7	2103	426.409101265737	0
7	2108	427.19255091686	0
7	2113	427.337309696081	0
7	2118	427.942678504594	0
7	2123	428.124035630499	0
7	2128	428.845450859334	0
7	2133	431.107751701244	0
7	2138	433.790207990304	0
7	2145	434.395589697561	0
7	2148	434.454926698274	0
7	2153	435.406935864626	0
7	2158	437.453544461894	0
7	2163	437.64325229737	0
7	2168	438.003657227293	0
7	2173	438.150172883534	0
7	2178	438.979573103831	0
7	2183	439.519949422386	0
7	2188	440.468715687782	0
7	2193	440.853917266823	0
7	2198	441.083447567148	0
7	2205	442.10853469695	0
7	2208	442.167871697663	0
7	2213	443.544200973648	0
7	2218	444.033034911492	0
7	2223	444.397566134199	0
7	2228	444.620910979365	0
7	2233	445.105902343166	0
7	2238	445.506418633488	0
7	2243	446.901185050466	0
7	2248	448.286256513526	0
7	2253	449.115885619938	0
7	2258	449.753061559604	0
7	2264	449.942706834916	0
7	2269	450.329990655971	0
7	2274	451.934477511885	0
7	2279	455.7406559873	0
7	2284	458.548012004614	0
7	2291	459.229142710237	0
7	2294	459.28847971095	0
7	2299	461.032796916663	0
7	2304	461.479577343722	0
7	2309	461.797946402082	0
7	2314	463.37970895992	0
7	2319	465.591356975559	0
7	2324	468.447858060582	0
7	2329	468.777526063464	0
7	2334	468.966076217682	0
7	2339	469.296730924334	0
7	2344	470.894584327427	0
7	2349	471.597472465666	0
7	2354	471.865038363414	0
7	2359	472.442397524037	0
7	2364	472.517411076174	0
7	2369	473.096977101278	0
7	2374	473.4626830391	0
7	2379	474.259028292954	0
7	2384	475.091305827732	0
7	2389	479.067129904559	0
7	2394	479.598210442961	0
7	2399	480.709787496987	0
7	2404	481.895950842378	0
7	2409	482.111605215851	0
7	2414	482.855828088702	0
7	2419	483.296798520042	0
7	2424	484.212168266576	0
7	2429	484.75073990759	0
7	2434	486.280900826289	0
7	2439	488.306469936002	0
7	2444	488.809750674263	0
7	2449	489.579652677739	0
7	2454	491.113808996926	0
7	2459	491.350485508724	0
7	2464	493.452982357687	0
7	2469	494.779134014092	0
7	2474	495.763583337661	0
7	2479	498.059875036908	0
7	2484	498.975597215631	0
7	2489	502.055219211097	0
7	2494	502.476453536952	0
7	2499	503.153048386264	0
7	2504	504.65678847555	0
7	2509	504.965408184098	0
7	2515	507.385054660197	0
7	2520	508.370338541192	0
7	2525	508.575351724273	0
7	2530	509.742527020108	0
7	2535	511.410948111611	0
7	2540	511.593240318577	0
7	2545	511.747965484876	0
7	2550	512.917140662783	0
7	2555	513.159692104403	0
7	2560	514.240163058741	0
7	2565	516.029370522946	0
7	2570	516.288040203537	0
7	2575	516.877678851478	0
7	2580	517.772967649122	0
7	2585	519.69327537202	0
7	2590	520.260727863411	0
7	2595	520.923167777101	0
7	2600	521.23476632317	0
7	2605	523.620081147906	0
7	2610	524.943336829787	0
7	2615	525.332855494215	0
7	2620	525.602436485542	0
7	2625	527.161272190318	0
7	2630	527.819004166794	0
7	2635	529.381032802229	0
7	2640	532.069627666013	0
7	2645	532.22018210382	0
7	2650	534.792767176261	0
7	2655	536.576981632119	0
7	2660	538.27999880832	0
7	2665	538.704157124442	0
7	2670	539.243563613943	0
7	2675	541.12926833427	0
7	2680	541.964092894998	0
7	2685	543.693577009932	0
7	2690	544.825439432018	0
7	2695	546.27628169311	0
7	2700	547.017436655506	0
7	2705	547.570956500809	0
7	2710	548.058571835495	0
7	2715	548.73461010135	0
7	2720	548.966808221957	0
7	2725	550.011673183181	0
7	2730	551.856774122104	0
7	2735	553.873726125814	0
7	2740	557.240776537716	0
7	2747	558.203274152881	0
7	2750	558.262611153594	0
7	2755	559.451527694772	0
7	2760	559.769662736416	0
7	2766	560.394614038127	0
7	2771	561.519280210772	0
7	2776	561.741526258766	0
7	2781	562.291626485728	0
7	2786	563.163000423307	0
7	2791	565.961780422967	0
7	2796	569.820429043789	0
7	2801	570.77813330988	0
7	2806	571.761682297015	0
7	2811	572.507052752715	0
7	2816	572.6551474262	0
7	2821	572.793367392323	0
7	2826	572.887852077271	0
7	2831	574.356499633008	0
7	2836	574.76859462493	0
7	2841	575.256896952789	0
7	2846	577.42600199212	0
7	2851	577.552968093376	0
7	2858	577.66426848653	0
7	2861	577.723605487243	0
7	2866	578.617315122723	0
7	2871	579.342813098885	0
7	2876	581.429077987436	0
7	2881	582.23021567474	0
7	2886	582.331411874007	0
7	2891	583.44765171132	0
7	2896	584.23032985805	0
7	2901	585.750361162506	0
7	2906	586.428835664149	0
7	2911	586.975344836445	0
7	2916	588.088748776553	0
7	2921	589.006393499223	0
7	2926	589.489508829901	0
7	2933	589.956856935562	0
7	2936	590.016193936275	0
7	2941	590.115711107801	0
7	2946	592.563031840943	0
7	2951	594.980456108134	0
7	2956	595.157617280548	0
7	2961	596.073109093543	0
7	2966	597.983158491911	0
7	2971	598.806925353761	0
7	2976	599.064011053978	0
7	2981	600.996944591836	0
7	2986	601.495776029881	0
7	2991	602.319295769588	0
7	2996	604.031816688218	0
7	3001	605.876480535395	0
7	3006	611.09232868625	0
7	3013	612.520089043445	0
7	3017	612.709734318757	0
7	3022	613.682508660452	0
7	3027	617.956911739725	0
7	3032	618.431321970662	0
7	3037	620.915978905376	0
7	3042	621.119975433566	0
7	3047	621.431457164702	0
7	3052	622.312128653463	0
7	3057	622.860969282804	0
7	3062	623.211153009442	0
7	3067	623.957283940204	0
7	3072	624.628073324431	0
7	3077	625.465580099742	0
7	3082	625.996994934309	0
7	3087	626.70261143395	0
7	3092	627.114283627186	0
7	3097	630.431492617834	0
7	3102	631.82282571036	0
7	3107	632.344661898284	0
7	3112	633.367206813727	0
7	3117	635.609220545264	0
7	3122	636.034213976809	0
7	3127	636.728096688352	0
7	3134	636.867665963363	0
7	3137	636.927002964076	0
7	3142	640.105675659328	0
7	3147	640.87415256589	0
7	3152	642.155317518837	0
7	3157	643.542982334034	0
7	3162	643.955424294509	0
7	3167	645.425554604234	0
7	3172	648.855381726183	0
7	3177	649.205700476279	0
7	3182	649.382443113547	0
7	3187	649.805142056314	0
7	3192	650.61385271065	0
7	3197	650.990255153132	0
7	3202	651.400699311117	0
7	3207	651.495745609948	0
7	3212	654.137831427418	0
7	3217	655.479130417662	0
7	3222	657.364732955113	0
7	3227	658.46666915336	0
7	3232	658.752494600518	0
7	3237	659.344286044076	0
7	3242	661.713554472954	0
7	3247	662.888871261262	0
7	3252	664.193387279956	0
7	3257	664.727925362927	0
7	3262	667.159112572569	0
7	3268	667.80068458594	0
7	3275	670.189169328177	0
7	3278	670.24850632889	0
7	3283	671.774783642838	0
7	3288	673.318669628718	0
7	3293	673.944069704461	0
7	3298	674.347602261066	0
7	3303	675.928557304163	0
7	3308	676.048337460007	0
7	3313	676.610336788265	0
7	3318	676.717547044889	0
7	3323	678.99037702101	0
7	3328	679.494070231102	0
7	3333	679.881687648577	0
7	3338	680.020239678699	0
7	3343	680.465177055674	0
7	3348	680.568417262485	0
7	3353	681.118391195234	0
7	3358	681.506603446895	0
7	3365	681.934091360202	0
7	3368	681.993428360915	0
7	3373	683.821280178337	0
7	3378	684.481115521809	0
7	3383	685.782451830749	0
7	3388	686.16429035135	0
7	3393	687.167017222562	0
7	3398	688.662503875923	0
7	3403	688.95007713484	0
7	3408	689.564113383612	0
7	3413	689.778097017984	0
7	3418	694.202460572641	0
7	3423	697.959491595138	0
7	3428	698.952656917886	0
7	3433	700.448834390943	0
7	3438	702.21570588482	0
7	3443	702.29196051002	0
7	3448	703.109540438041	0
7	3453	704.463060335287	0
7	3458	705.611323746127	0
7	3463	707.91509814557	0
7	3468	708.29744692208	0
7	3473	709.088659511247	0
7	3478	709.244631326372	0
7	3483	709.858277920755	0
7	3488	711.741602348235	0
7	3493	711.853814411418	0
7	3498	717.275545333691	0
7	3503	718.364211625614	0
7	3508	718.926580435241	0
7	3513	720.200791482313	0
7	3519	721.142776819962	0
7	3524	725.19108928049	0
7	3529	725.556678945474	0
7	3534	727.069019428952	0
7	3539	727.866962424153	0
7	3544	728.84167129138	0
7	3551	730.280863153594	0
7	3554	730.340200154307	0
7	3559	730.667726056581	0
7	3564	733.259187798278	0
7	3569	734.567517313229	0
7	3574	736.745488443518	0
7	3579	737.015376066414	0
7	3584	737.371685520136	0
7	3589	737.601333009047	0
7	3594	739.199444425165	0
7	3599	739.285092542192	0
7	3604	742.159736320404	0
7	3609	742.25736606069	0
7	3614	743.232082792185	0
7	3621	746.097140616837	0
7	3624	746.15647761755	0
7	3629	746.258976585299	0
7	3634	746.332689533775	0
7	3639	747.171315293227	0
7	3644	747.348215608474	0
7	3649	747.68421600969	0
7	3654	749.149530514451	0
7	3659	749.553063977343	0
7	3664	750.672737888477	0
7	3669	751.129996403566	0
7	3674	752.569142385943	0
7	3679	752.899084313833	0
7	3684	754.046552684118	0
7	3689	754.525862101101	0
7	3694	754.792251107412	0
7	3699	755.396931662657	0
7	3704	755.952929993334	0
7	3709	756.105773418341	0
7	3714	757.645324840081	0
7	3719	758.692424711126	0
7	3726	760.317025045085	0
7	3729	760.376362045798	0
7	3734	761.027275513843	0
7	3739	761.811354211945	0
7	3744	761.889985911927	0
7	3749	764.207036171865	0
7	3754	764.387569693007	0
7	3759	764.649667896713	0
7	3764	765.123560440821	0
7	3770	765.422784904483	0
7	3775	765.893712965126	0
7	3780	768.526050858291	0
7	3785	773.10775441234	0
7	3790	774.269463556006	0
7	3795	776.246524483443	0
7	3800	776.558686336057	0
7	3805	776.947635873347	0
7	3810	777.964628306018	0
7	3815	780.10603444891	0
7	3820	780.842262070447	0
7	3827	781.382398908225	0
7	3830	781.441735908938	0
7	3835	781.937876441554	0
7	3840	783.140798734987	0
7	3845	784.658025266883	0
7	3852	785.74825345634	0
7	3855	785.807590457053	0
7	3860	786.758493723456	0
7	3865	788.050044601875	0
7	3870	788.257085011063	0
7	3875	789.089562974061	0
7	3880	790.269450768413	0
7	3885	790.495770050494	0
7	3890	798.468287522433	0
7	3895	798.728890817261	0
7	3900	800.179372215088	0
7	3905	800.3827440189	0
7	3910	802.796707003156	0
7	3915	803.006217882591	0
7	3920	803.718750499782	0
7	3925	804.199059156803	0
7	3930	804.467424496453	0
7	3935	805.268534611832	0
7	3940	805.750377775732	0
7	3945	805.892290420797	0
7	3950	807.25934153508	0
7	3955	807.322129070481	0
7	3960	809.16061219326	0
7	3965	810.403420040933	0
7	3970	813.395075913105	0
7	3975	814.152311472579	0
7	3980	814.300865733031	0
7	3985	816.650302188123	0
7	3990	816.857335682754	0
7	3995	816.978343988321	0
7	4000	817.07847019404	0
7	4005	817.184606306015	0
7	4010	818.055281289774	0
7	4015	818.175456873103	0
7	4021	819.140032393516	0
7	4026	819.710191974841	0
7	4031	821.420975777471	0
7	4036	824.147567203546	0
7	4041	824.322417051918	0
7	4046	826.132492321842	0
7	4051	827.877413585562	0
7	4056	828.863983300118	0
7	4061	831.009369003378	0
7	4066	831.324584452122	0
7	4071	832.002266939129	0
7	4076	832.518406922453	0
7	4081	833.489726627208	0
7	4086	836.500506640585	0
7	4091	837.10780535605	0
7	4096	837.17610774126	0
7	4101	837.525824868004	0
7	4106	839.344866307402	0
7	4111	839.463570177018	0
7	4116	840.944251372852	0
7	4121	841.13050477812	0
7	4126	843.417512919124	0
7	4131	844.287855456598	0
7	4136	846.241588061798	0
7	4141	846.493558979236	0
7	4146	847.502513408823	0
7	4151	849.005794860389	0
7	4156	849.113568352023	0
7	4161	849.395489450885	0
7	4166	849.651107915791	0
7	4171	850.17206746974	0
7	4178	854.708561751745	0
7	4181	854.767898752458	0
7	4186	855.799613105255	0
7	4191	856.169886366508	0
7	4196	856.735601418737	0
7	4201	858.993409616046	0
7	4206	859.21236369295	0
7	4211	859.956742123446	0
7	4216	860.037558916845	0
7	4221	860.22649889088	0
7	4226	860.945184996409	0
7	4231	862.024192976318	0
7	4236	862.190750972549	0
7	4241	862.314116730936	0
7	4246	862.881411793296	0
7	4251	865.906853758317	0
7	4256	868.988220629897	0
7	4261	870.058710916021	0
7	4266	870.898145755734	0
7	4272	871.483464653271	0
7	4277	872.164596124039	0
7	4282	873.806811809064	0
7	4287	874.363638005069	0
7	4292	875.515809303589	0
7	4297	876.264606772492	0
7	4302	877.03615571905	0
7	4307	878.010493571618	0
7	4312	879.435453492003	0
7	4317	881.148669757498	0
7	4322	881.826694644452	0
7	4327	882.362667908261	0
7	4332	882.805449743793	0
7	4337	883.446214888674	0
7	4342	884.201673123188	0
7	4347	885.324380814922	0
7	4352	885.468277300714	0
7	4357	886.390458997117	0
7	4362	886.86890061615	0
7	4367	887.306106482448	0
7	4372	887.819519207073	0
7	4377	888.082884742337	0
7	4382	890.213368414408	0
7	4387	892.389914896861	0
7	4392	893.22609150009	0
7	4397	894.860182875379	0
7	4402	894.9711779829	0
7	4409	896.990470003267	0
7	4412	897.04980700398	0
7	4417	898.732795026623	0
7	4422	899.40375276004	0
7	4427	899.906122663941	0
7	4432	900.380883010755	0
7	4437	900.499971444007	0
7	4442	901.483344617141	0
7	4447	905.118096332318	0
7	4452	906.866178783701	0
7	4457	907.122893208324	0
7	4462	907.638091472932	0
7	4467	908.875030601802	0
7	4472	909.380441841951	0
7	4477	909.579534089058	0
7	4482	909.655985598582	0
7	4487	911.952574439496	0
7	4492	913.472137055263	0
7	4497	914.32528324758	0
7	4502	916.720113939893	0
7	4507	917.004979566212	0
7	4512	917.133451645159	0
7	4517	917.647827954814	0
7	4523	918.708451168242	0
7	4528	922.053814938947	0
7	4533	922.596057682572	0
7	4538	924.083164318432	0
7	4543	925.54889452588	0
7	4548	931.024348739861	0
7	4553	931.73010200438	0
7	4558	932.011680877243	0
7	4563	933.322825281253	0
7	4568	933.862477776585	0
7	4573	935.187230901118	0
7	4578	935.3536538935	0
7	4583	935.458409767414	0
7	4588	936.682301858231	0
7	4593	938.347018666227	0
7	4598	938.913693702478	0
7	4603	939.814266473392	0
7	4608	939.904702205981	0
7	4613	940.136903069908	0
7	4618	940.40770070871	0
7	4623	942.139578782229	0
7	4628	943.626192299731	0
7	4635	944.482167764543	0
7	4638	944.541504765256	0
7	4643	945.684451947545	0
7	4648	945.873760827238	0
7	4653	946.6093121151	0
7	4660	947.271115932714	0
7	4663	947.330452933427	0
7	4668	948.511590825859	0
7	4673	951.399365027368	0
7	4678	951.493863638108	0
7	4683	951.588474560499	0
7	4688	951.671991717775	0
7	4693	952.016876213752	0
7	4698	954.319270344714	0
7	4703	954.625386911155	0
7	4708	955.175433700759	0
7	4713	956.789095944284	0
7	4718	958.260317394763	0
7	4723	959.663067059	0
7	4728	959.963867954806	0
7	4733	960.594362835303	0
7	4738	960.896998568149	0
7	4743	961.635971577619	0
7	4748	962.677843327559	0
7	4755	963.380632773019	0
7	4758	963.439969773732	0
7	4763	966.764660780468	0
7	4768	967.676514885177	0
7	4774	968.883890660575	0
7	4779	969.049532641354	0
7	4786	969.216939539204	0
7	4789	969.276276539917	0
7	4794	970.307162625087	0
7	4799	970.369735734231	0
7	4804	972.504433670189	0
7	4809	973.370286730361	0
7	4814	974.166170512867	0
7	4819	974.675698928751	0
7	4824	975.816463550488	0
7	4829	976.558993984003	0
7	4834	978.495207624188	0
7	4839	978.845372296504	0
7	4844	979.401663235479	0
7	4849	980.204254806744	0
7	4854	981.356623715062	0
7	4859	982.955674112981	0
7	4864	985.459467609091	0
7	4869	988.385348835435	0
7	4874	992.308712307806	0
7	4879	993.213098315501	0
7	4884	994.904738536019	0
7	4889	994.988542945526	0
7	4894	995.437371876919	0
7	4899	997.186610451341	0
7	4904	997.275461562937	0
7	4909	997.51569333433	0
7	4914	999.067099049713	0
7	4919	999.511305104671	0
7	4926	999.834660758059	0
7	4929	999.893997758772	0
8	131	19.360397534505	0.027570311248
8	216	31.592791636597	0.051119917485
8	412	74.84117246146	0.050813776459
8	432	79.225980099338	0.017359362602
8	447	84.376561732807	0.015772058002
8	489	92.935664178449	0.048370033712
8	492	92.995001179162	0.076286354443
8	678	131.923192260506	0.009783269032
8	738	142.601474598631	0.035152061681
8	804	152.978252889535	0.043424734806
8	874	175.880742721123	0.005244782626
8	989	205.334560697639	0.031236454568
8	1006	207.04565671458	0.046437411107
8	1112	231.67465448198	0.019276594206
8	1115	231.733991482693	0.067149699749
8	1120	231.793328483406	0.007096205601
8	1160	240.01400302158	0.038874284206
8	1220	252.236212772021	0.027437207149
8	1230	253.757480878624	0.051547118944
8	1326	271.846128512574	0.007484538546
8	1486	296.034638594119	0.045479234803
8	1547	307.732961294054	0.005748364421
8	1552	307.792298294767	0.05733048524
8	1778	351.87398284746	0.016824603882
8	1783	351.933319848173	0.022046351771
8	1933	378.182223036568	0.006698577558
8	1998	406.279507591425	0.029588107587
8	2010	406.851612332202	0.088452637456
8	2144	434.395589697561	0.008127599726
8	2204	442.10853469695	0.057955980458
8	2261	449.883369834203	0.064531950697
8	2290	459.229142710237	0.013140626323
8	2746	558.203274152881	0.01536881557
8	2857	577.66426848653	0.02101774859
8	2932	589.956856935562	0.004579241149
8	3014	612.650397318044	0.180699880874
8	3133	636.867665963363	0.056493493356
8	3274	670.189169328177	0.011729455937
8	3364	681.934091360202	0.053361678547
8	3550	730.280863153594	0.05810658091
8	3620	746.097140616837	0.027776648797
8	3725	760.317025045085	0.007203207797
8	3826	781.382398908225	0.055096763208
8	3851	785.74825345634	0.021991326586
8	4177	854.708561751745	0.012350089641
8	4408	896.990470003267	0.047400020832
8	4634	944.482167764543	0.049151763319
8	4659	947.271115932714	0.003444821994
8	4754	963.380632773019	0.050724503581
8	4785	969.216939539204	0.039864316314
8	4925	999.834660758059	0.050093755756

