version 2
run General-190-20240201-11:04:22-40057
attr configname General
attr datetime 20240201-11:04:22
attr experiment General
attr inifile main.ini
attr iterationvars "$0=1.4, $1=3.5, $2=30"
attr iterationvarsf 1.4,3.5,30-
attr measurement "$0=1.4, $1=3.5, $2=30"
attr network Rete
attr processid 40057
attr repetition 10
attr replication #10
attr resultdir results
attr runnumber 190
attr seedset 190
param Rete.lambda 1.4
param Rete.a 0.3s
param Rete.b 3.5s
param Rete.c 0.1s
param Rete.d 0.3s
param Rete.mu 3.0
param Rete.source2.interArrivalTime exponential(1s/lambda)
param Rete.source2.jobServiceTime exponential(1s/mu)
param Rete.source2.deadline uniform(a,b)
param Rete.server2.j 30
param Rete.server2.V uniform(c,d)

vector 0 Rete.passiveQueue queueLength:vector ETV
attr interpolationmode sample-hold
attr title "queue length, vector"
vector 1 Rete.sink lifeTime:vector ETV
attr interpolationmode none
attr title "lifetime of arrived jobs, vector"
attr unit s
vector 2 Rete.sink totalQueueingTime:vector ETV
attr interpolationmode none
attr title "the total time spent in queues by arrived jobs, vector"
attr unit s
vector 3 Rete.sink queuesVisited:vector ETV
attr interpolationmode none
attr title "the total number of queues visited by arrived jobs, vector"
vector 4 Rete.sink totalServiceTime:vector ETV
attr interpolationmode none
attr title "the total time spent  by arrived jobs, vector"
attr unit s
vector 5 Rete.sink totalDelayTime:vector ETV
attr interpolationmode none
attr title "the total time spent in delay nodes by arrived jobs, vector"
attr unit s
vector 6 Rete.sink delaysVisited:vector ETV
attr interpolationmode none
attr title "the total number of delays visited by arrived jobs, vector"
vector 7 Rete.sink generation:vector ETV
attr interpolationmode none
attr title "the generation of the arrived jobs, vector"
vector 8 Rete.passiveQueue queueingTime:vector ETV
attr interpolationmode none
attr title "queueing time at dequeue, vector"
attr unit s
0	0	0	0
0	50	8.780398176872	1
0	51	8.926099084796	0
0	95	19.75375769875	1
0	96	19.793246351114	0
0	110	21.155761704764	1
0	111	21.319260144266	0
0	130	25.39647850634	1
0	132	25.498636374826	2
0	133	25.68327135301	1
0	136	26.012163989445	0
0	201	39.228045050752	1
0	202	39.258601960379	0
0	206	39.361159540845	1
0	207	39.587494596814	0
0	216	41.180726546942	1
0	217	41.354361250879	0
0	221	41.67579054956	1
0	222	41.683253887314	0
0	226	42.007322263998	1
0	227	42.012146523749	0
0	241	43.248821796934	1
0	243	43.252375600555	2
0	244	43.36975574004	1
0	247	43.698648376475	0
0	256	44.393536256495	1
0	257	44.518190521603	0
0	281	46.895806162294	1
0	282	47.209548058533	0
0	286	47.410582004477	1
0	287	47.538440694968	0
0	291	47.559708468939	1
0	293	47.844221237631	2
0	294	47.867333331403	1
0	298	47.944683415541	2
0	300	48.160698054481	3
0	301	48.196225967838	2
0	305	48.466776535616	3
0	308	48.808355622197	2
0	311	49.043374997802	3
0	312	49.137248258632	2
0	316	49.4260487445	3
0	317	49.466140895067	2
0	320	49.795033531502	1
0	323	50.123926167937	0
0	327	50.170588296349	1
0	329	50.199753963702	2
0	330	50.452818804372	1
0	333	50.781711440807	0
0	347	53.763004012943	1
0	348	53.794808041164	0
0	357	54.584950106065	1
0	358	54.611771951413	0
0	362	54.631965493803	1
0	363	54.940664587848	0
0	387	59.328815839793	1
0	389	59.381642667498	2
0	390	59.641001707307	1
0	394	59.871189901632	2
0	396	59.903006210619	3
0	397	59.969894343742	2
0	400	60.298786980177	1
0	403	60.627679616612	0
0	407	60.884815216587	1
0	408	60.956572253047	0
0	412	61.00514624155	1
0	413	61.285464889482	0
0	427	63.151615808423	1
0	429	63.152228602233	2
0	430	63.264950014616	1
0	434	63.402062082362	2
0	435	63.593842651051	1
0	438	63.922735287486	0
0	458	65.867466119906	1
0	459	66.183607605374	0
0	473	68.380556081533	1
0	474	68.583185107942	0
0	483	69.010362195009	1
0	485	69.285326590544	2
0	486	69.317575113258	1
0	489	69.646467749693	0
0	498	70.079445443267	1
0	499	70.323614486028	0
0	513	73.440700940426	1
0	514	73.450333775602	0
0	528	74.793810116535	1
0	529	75.016794288809	0
0	538	75.560027430489	1
0	539	75.783617112715	0
0	578	83.336974354403	1
0	579	83.471050419115	0
0	588	84.116106771427	1
0	589	84.258380732691	0
0	593	84.57557928557	1
0	594	84.587273369126	0
0	605	86.290478773631	1
0	606	86.440430479695	0
0	614	87.308251458378	1
0	615	87.449207676348	0
0	629	90.238646885295	1
0	630	90.273450556486	0
0	644	92.4090417963	1
0	645	92.644015222618	0
0	669	96.74219510303	1
0	670	96.939755135516	0
0	679	97.640144111269	1
0	680	97.895909202393	0
0	689	98.42190055364	1
0	690	98.725349982134	0
0	704	101.888939920038	1
0	705	102.115315298421	0
0	719	103.222563844362	1
0	721	103.269601591041	2
0	722	103.497728762452	1
0	726	103.716106747315	2
0	728	103.777528358878	3
0	729	103.826621398887	2
0	732	104.155514035322	1
0	735	104.484406671757	0
0	744	105.783408116503	1
0	745	105.86748762332	0
0	754	107.669417963949	1
0	757	108.158638116417	0
0	765	108.765350370191	1
0	767	108.88372564744	2
0	768	109.022072991348	1
0	771	109.350965627783	0
0	775	109.618493241351	1
0	776	109.679858264218	0
0	790	111.638566335433	1
0	791	111.934736245352	0
0	810	114.682979584671	1
0	812	114.694576368661	2
0	813	114.881463240175	1
0	816	115.21035587661	0
0	820	115.242882008653	1
0	821	115.539248513045	0
0	835	117.975069316727	1
0	836	118.22659396678	0
0	845	119.16475923876	1
0	846	119.472219491553	0
0	855	120.686353121826	1
0	856	120.728174375725	0
0	860	121.047505621989	1
0	861	121.05706701216	0
0	870	122.194279330986	1
0	871	122.41489109116	0
0	895	124.836843721172	1
0	896	125.11929509305	0
0	911	128.567719436533	1
0	912	128.895873343547	0
0	921	129.985588443204	1
0	922	130.146932126182	0
0	926	130.22261574947	1
0	928	130.305615372891	2
0	929	130.475824762617	1
0	933	130.705643721116	2
0	934	130.804717399052	1
0	937	131.133610035487	0
0	941	131.241726755993	1
0	943	131.247730429159	2
0	945	131.404078472778	3
0	946	131.462502671922	2
0	949	131.791395308357	1
0	953	131.94060925522	2
0	955	132.095287644371	3
0	956	132.120287944792	2
0	960	132.310812480565	3
0	962	132.387613467386	4
0	964	132.428300455997	5
0	965	132.449180581227	4
0	968	132.778073217662	3
0	971	133.106965854097	2
0	975	133.234708333715	3
0	977	133.384367028551	4
0	978	133.435858490532	3
0	981	133.764751126967	2
0	985	134.029854707384	3
0	987	134.050596264878	4
0	988	134.093643763402	3
0	991	134.422536399837	2
0	995	134.62796350449	3
0	996	134.751429036272	2
0	999	135.080321672707	1
0	1002	135.409214309142	0
0	1011	138.260992808914	1
0	1012	138.543975822627	0
0	1021	139.156139028047	1
0	1022	139.380267354666	0
0	1031	140.456680175927	1
0	1032	140.572539762248	0
0	1041	141.01361605949	1
0	1042	141.278689680171	0
0	1051	142.371331211835	1
0	1052	142.491997802074	0
0	1072	148.694971975173	1
0	1074	148.746437285817	2
0	1075	148.851894850751	1
0	1078	149.180787487186	0
0	1082	149.328812017417	1
0	1083	149.509680123621	0
0	1092	150.657952201497	1
0	1093	150.710309318756	0
0	1097	150.830439138781	1
0	1098	151.039201955191	0
0	1102	151.352049259554	1
0	1103	151.368094591626	0
0	1132	157.316349717319	1
0	1134	157.372434746424	2
0	1135	157.548795503113	1
0	1139	157.553767644507	2
0	1141	157.669372696487	3
0	1143	157.690766684965	4
0	1144	157.877688139548	3
0	1147	158.206580775983	2
0	1150	158.535473412418	1
0	1153	158.864366048853	0
0	1162	159.560871644668	1
0	1163	159.807338482795	0
0	1177	161.429194556224	1
0	1178	161.474270379544	0
0	1192	163.066439355901	1
0	1193	163.108587756928	0
0	1207	165.374692162453	1
0	1210	165.94863302169	0
0	1213	166.224175409962	1
0	1215	166.2732323601	2
0	1216	166.277525658125	1
0	1219	166.60641829456	0
0	1223	166.824565759881	1
0	1224	166.935310930995	0
0	1228	167.153677146416	1
0	1229	167.26420356743	0
0	1233	167.422256397656	1
0	1234	167.593096203865	0
0	1258	172.79045127585	1
0	1259	173.098767707881	0
0	1268	173.943764148045	1
0	1269	174.236149053531	0
0	1298	178.29562897178	1
0	1299	178.310804423977	0
0	1313	181.101538984112	1
0	1315	181.192395058832	2
0	1317	181.358351836945	3
0	1318	181.396248360864	2
0	1322	181.397284731206	3
0	1324	181.642396601268	4
0	1325	181.725140997299	3
0	1329	181.733028019367	4
0	1330	182.054033633734	3
0	1333	182.382926270169	2
0	1337	182.569408858997	3
0	1339	182.577125710529	4
0	1340	182.711818906604	3
0	1343	183.040711543039	2
0	1347	183.041182562392	3
0	1348	183.369604179474	2
0	1351	183.698496815909	1
0	1354	184.027389452344	0
0	1358	184.171192952947	1
0	1362	184.439351974797	2
0	1364	184.448453495319	3
0	1365	184.639519106703	2
0	1368	184.697608824214	3
0	1369	184.968411743138	2
0	1373	185.088205988342	3
0	1374	185.297304379573	2
0	1377	185.626197016008	1
0	1380	185.955089652443	0
0	1404	188.25036259153	1
0	1405	188.553473526633	0
0	1409	188.643270684666	1
0	1411	188.69781280749	2
0	1412	188.882366163068	1
0	1416	188.889155343195	2
0	1417	189.211258799503	1
0	1421	189.235168875955	2
0	1422	189.540151435938	1
0	1426	189.660963318752	2
0	1427	189.869044072373	1
0	1430	190.197936708808	0
0	1449	194.779469240825	1
0	1450	195.10473509518	0
0	1459	196.381172942565	1
0	1460	196.410078673709	0
0	1469	197.404280660636	1
0	1470	197.44821862878	0
0	1479	198.313588276573	1
0	1480	198.468133976109	0
0	1489	199.247299143844	1
0	1490	199.348643158174	0
0	1494	199.611289454044	1
0	1495	199.677535794609	0
0	1515	203.570858334371	1
0	1516	203.619141291609	0
0	1545	209.18714582585	1
0	1546	209.359895053456	0
0	1555	210.166142790714	1
0	1557	210.393747648483	2
0	1558	210.452959299695	1
0	1561	210.78185193613	0
0	1565	211.017603587796	1
0	1566	211.110744572565	0
0	1580	214.107064737084	1
0	1581	214.298155226417	0
0	1595	215.512438841916	1
0	1597	215.583095719439	2
0	1598	215.83084182171	1
0	1602	216.06777989038	2
0	1603	216.159734458145	1
0	1606	216.48862709458	0
0	1625	218.38119079055	1
0	1626	218.460860509864	0
0	1635	218.995256297609	1
0	1636	219.228766007322	0
0	1645	221.049619344057	1
0	1646	221.319144927321	0
0	1650	221.622607347527	1
0	1652	221.63094435417	2
0	1653	221.648037563756	1
0	1656	221.976930200191	0
0	1666	224.256516652977	1
0	1667	224.400928784299	0
0	1681	227.698790602565	1
0	1683	227.849323772559	2
0	1685	227.883510721035	3
0	1686	227.963866108853	2
0	1689	228.292758745288	1
0	1692	228.621651381723	0
0	1726	234.495644943757	1
0	1727	234.540332649068	0
0	1731	234.747794978829	1
0	1732	234.869225285503	0
0	1741	235.675222483118	1
0	1743	235.828339139272	2
0	1744	235.978805409298	1
0	1747	236.307698045733	0
0	1756	237.96021367969	1
0	1757	238.247800234141	0
0	1766	239.851021940417	1
0	1768	239.958725483122	2
0	1769	240.149654442897	1
0	1772	240.478547079332	0
0	1786	241.891135859445	1
0	1787	241.950946969869	0
0	1791	242.228419952638	1
0	1792	242.279839606304	0
0	1796	242.560888419412	1
0	1797	242.608732242739	0
0	1806	243.69092034404	1
0	1807	243.961491618269	0
0	1811	244.256205898185	1
0	1815	244.474225341116	2
0	1817	244.556877725719	3
0	1818	244.573621272628	2
0	1820	244.902513909063	1
0	1823	245.231406545498	0
0	1827	245.302228176996	1
0	1828	245.560299181933	0
0	1837	246.258904753196	1
0	1838	246.437202324522	0
0	1842	246.596405679404	1
0	1844	246.681980800263	2
0	1845	246.766094960957	1
0	1848	247.094987597392	0
0	1862	253.329565350879	1
0	1864	253.45623597347	2
0	1865	253.512562266552	1
0	1868	253.841454902987	0
0	1872	254.037912064737	1
0	1873	254.170347539422	0
0	1877	254.262110582024	1
0	1878	254.499240175857	0
0	1912	260.713622519132	1
0	1913	261.007238578821	0
0	1917	261.110520203508	1
0	1918	261.336131215256	0
0	1922	261.485569262252	1
0	1923	261.665023851691	0
0	1932	262.772245675134	1
0	1933	262.810541959727	0
0	1957	265.967179712492	1
0	1958	266.135206931378	0
0	1962	266.24748874563	1
0	1965	266.747336585737	0
0	1973	267.512211269636	1
0	1974	267.799398059162	0
0	1978	267.87595729108	1
0	1979	268.128290695597	0
0	1983	268.205342993111	1
0	1984	268.457183332032	0
0	1988	268.749264214089	1
0	1989	268.786075968467	0
0	2003	270.206384750873	1
0	2004	270.474109453849	0
0	2013	271.868381526247	1
0	2014	271.929057634967	0
0	2018	272.006364395947	1
0	2020	272.03204096846	2
0	2021	272.257950271402	1
0	2025	272.342741656047	2
0	2026	272.586842907837	1
0	2029	272.915735544272	0
0	2038	273.605210252685	1
0	2039	273.805894853394	0
0	2053	275.351132172195	1
0	2054	275.365068339803	0
0	2058	275.581773504557	1
0	2059	275.693960976238	0
0	2063	275.781080870208	1
0	2064	276.022853612673	0
0	2068	276.207273739891	1
0	2069	276.351746249108	0
0	2073	276.677188739977	1
0	2074	276.680638885543	0
0	2093	280.174416900936	1
0	2094	280.281557734268	0
0	2098	280.595742810393	1
0	2100	280.606854745245	2
0	2101	280.610450370703	1
0	2104	280.939343007138	0
0	2134	284.592632641818	1
0	2135	284.898432475028	0
0	2144	285.730801975463	1
0	2145	285.815620583016	0
0	2164	291.16419487618	1
0	2165	291.478859742188	0
0	2169	291.657778654276	1
0	2170	291.807752378623	0
0	2174	291.861434334162	1
0	2176	292.088772729257	2
0	2177	292.136645015058	1
0	2181	292.403072012723	2
0	2182	292.465537651493	1
0	2185	292.794430287928	0
0	2209	296.181938116591	1
0	2210	296.362461085559	0
0	2214	296.60582918403	1
0	2215	296.691353721994	0
0	2224	297.660538988872	1
0	2225	297.750654082336	0
0	2234	298.984723926771	1
0	2235	299.122033026673	0
0	2244	300.043108096547	1
0	2245	300.100447195334	0
0	2259	302.469909246058	1
0	2261	302.642567236609	2
0	2262	302.712650799343	1
0	2266	302.807527316072	2
0	2269	303.324780453702	1
0	2271	303.653673090137	0
0	2275	303.809961844712	1
0	2276	303.982565726572	0
0	2325	314.437323001371	1
0	2326	314.472874688985	0
0	2330	314.535065816492	1
0	2331	314.80176732542	0
0	2335	315.040772501649	1
0	2336	315.130659961855	0
0	2350	317.296109828998	1
0	2351	317.516987362409	0
0	2355	317.824172091379	1
0	2356	317.845879998844	0
0	2375	322.065552324891	1
0	2376	322.293363405757	0
0	2380	322.319827195165	1
0	2381	322.622256042192	0
0	2410	328.68251327144	1
0	2411	328.700620288461	0
0	2415	329.028581494739	1
0	2418	329.31274994282	0
0	2421	329.592605636033	1
0	2423	329.619092316462	2
0	2424	329.641642579255	1
0	2428	329.92849347263	2
0	2429	329.97053521569	1
0	2432	330.299427852125	0
0	2446	332.756590511653	1
0	2447	332.791812717321	0
0	2451	333.048968550128	1
0	2452	333.120705353756	0
0	2456	333.317747853448	1
0	2458	333.322430021787	2
0	2459	333.449597990191	1
0	2462	333.778490626626	0
0	2466	334.094864303989	1
0	2467	334.107383263061	0
0	2516	343.090207236667	1
0	2517	343.169550005951	0
0	2536	348.678565211539	1
0	2537	348.8359524617	0
0	2568	352.593835152975	1
0	2570	352.734868339245	2
0	2571	352.843171040162	1
0	2573	353.172063676597	0
0	2577	353.408315358813	1
0	2579	353.43079451385	2
0	2580	353.500956313032	1
0	2583	353.829848949467	0
0	2587	354.080228796058	1
0	2588	354.158741585902	0
0	2597	354.939135180962	1
0	2598	354.946975225745	0
0	2602	354.952194522634	1
0	2604	355.239378177543	2
0	2605	355.27586786218	1
0	2609	355.352192626715	2
0	2611	355.468318008561	3
0	2613	355.567662940385	4
0	2614	355.604760498615	3
0	2617	355.93365313505	2
0	2620	356.262545771485	1
0	2623	356.59143840792	0
0	2632	357.167679457535	1
0	2633	357.458580675453	0
0	2652	360.358997786872	1
0	2654	360.427175665535	2
0	2655	360.648251878089	1
0	2658	360.977144514524	0
0	2687	366.739681832932	1
0	2688	366.989505143148	0
0	2733	379.762870387588	1
0	2734	380.073854124163	0
0	2743	381.141104072169	1
0	2744	381.146024462885	0
0	2768	385.907729535781	1
0	2770	386.12706748339	2
0	2771	386.161822502602	1
0	2774	386.490715139037	0
0	2788	389.374974754232	1
0	2790	389.518808495127	2
0	2791	389.555565494659	1
0	2795	389.597680409395	2
0	2797	389.80286939801	3
0	2798	389.884458131094	2
0	2801	390.213350767529	1
0	2804	390.542243403964	0
0	2808	390.731171556484	1
0	2809	390.871136040399	0
0	2823	392.129378517055	1
0	2824	392.309596368203	0
0	2843	395.976991147525	1
0	2844	396.28711712441	0
0	2848	396.482269644638	1
0	2850	396.614784601463	2
0	2851	396.616009760845	1
0	2854	396.94490239728	0
0	2858	397.144108425399	1
0	2859	397.273795033715	0
0	2874	399.399706326312	1
0	2875	399.697164773735	0
0	2889	401.425587722507	1
0	2891	401.579266033475	2
0	2892	401.729493202182	1
0	2896	401.847525142883	2
0	2898	401.968865582519	3
0	2899	402.058385838617	2
0	2903	402.365919421888	3
0	2904	402.387278475052	2
0	2908	402.669057095983	3
0	2909	402.716171111487	2
0	2913	402.884927501075	3
0	2914	403.045063747922	2
0	2918	403.283187254874	3
0	2919	403.373956384357	2
0	2923	403.443958254538	3
0	2924	403.702849020792	2
0	2927	404.031741657227	1
0	2931	404.081047861296	2
0	2932	404.360634293662	1
0	2935	404.689526930097	0
0	2939	404.760820214778	1
0	2940	405.018419566532	0
0	2944	405.083622755113	1
0	2946	405.108997636241	2
0	2947	405.347312202967	1
0	2950	405.676204839402	0
0	2954	405.818260262672	1
0	2955	406.005097475837	0
0	2959	406.117401599218	1
0	2960	406.333990112272	0
0	2974	407.970140507027	1
0	2975	408.275638982785	0
0	2984	409.967545916347	1
0	2986	410.188972312888	2
0	2987	410.244173124026	1
0	2991	410.251303029909	2
0	2992	410.573065760461	1
0	2995	410.901958396896	0
0	2999	410.980739221584	1
0	3000	411.230851033331	0
0	3014	416.574147997448	1
0	3016	416.666405332771	2
0	3017	416.690915074276	1
0	3022	417.303044728635	0
0	3035	418.511948115138	1
0	3036	418.557772118522	0
0	3045	419.579195517648	1
0	3047	419.779301559657	2
0	3048	419.907204682044	1
0	3052	419.974130342054	2
0	3053	420.236097318479	1
0	3056	420.564989954914	0
0	3060	420.69156314367	1
0	3061	420.893882591349	0
0	3070	421.885581664924	1
0	3071	421.905113194753	0
0	3075	421.95227910618	1
0	3077	422.031537887997	2
0	3079	422.225563715131	3
0	3081	422.228615635158	4
0	3082	422.234005831188	3
0	3085	422.562898467623	2
0	3088	422.891791104058	1
0	3092	423.09984620779	2
0	3093	423.220683740493	1
0	3096	423.549576376928	0
0	3100	423.790741153871	1
0	3101	423.878469013363	0
0	3135	428.949281222361	1
0	3137	428.953654638133	2
0	3138	429.13617632857	1
0	3142	429.326631686594	2
0	3143	429.465068965005	1
0	3146	429.79396160144	0
0	3155	430.474091386236	1
0	3156	430.578463934617	0
0	3160	430.871830073316	1
0	3161	430.907356571052	0
0	3176	432.759033668797	1
0	3177	432.990070313345	0
0	3181	433.120862542306	1
0	3182	433.31896294978	0
0	3191	434.519537896653	1
0	3193	434.549490762536	2
0	3194	434.764606876065	1
0	3198	434.847372258005	2
0	3199	435.0934995125	1
0	3202	435.422392148935	0
0	3236	442.663457680438	1
0	3238	442.758361180895	2
0	3239	442.850061400038	1
0	3242	443.178954036473	0
0	3256	444.835661419379	1
0	3257	444.864932928388	0
0	3261	444.962055265869	1
0	3263	445.004894516573	2
0	3264	445.193825564823	1
0	3267	445.522718201258	0
0	3276	448.03457267206	1
0	3277	448.278188686325	0
0	3281	448.297819790992	1
0	3282	448.60708132276	0
0	3286	448.760524388515	1
0	3287	448.935973959195	0
0	3296	450.663768823703	1
0	3297	450.900613322758	0
0	3301	451.132915308455	1
0	3302	451.229505959193	0
0	3316	452.274208674292	1
0	3318	452.320190884708	2
0	3319	452.476291037178	1
0	3323	452.800720922977	2
0	3326	453.088420691537	1
0	3328	453.417313327972	0
0	3347	455.301605332379	1
0	3348	455.370776817676	0
0	3352	455.485523688398	1
0	3353	455.699669454111	0
0	3357	456.005922406501	1
0	3358	456.028562090546	0
0	3367	456.594048055429	1
0	3368	456.785280351885	0
0	3392	459.836880404503	1
0	3393	460.145815666432	0
0	3397	460.251592006162	1
0	3398	460.474708302867	0
0	3442	469.395523009585	1
0	3443	469.401481250638	0
0	3447	469.698368109283	1
0	3448	469.730373887073	0
0	3452	469.959917150057	1
0	3453	470.059266523508	0
0	3462	470.931097271356	1
0	3463	471.145320375949	0
0	3483	474.388020128997	1
0	3484	474.550984646528	0
0	3488	474.791734855424	1
0	3489	474.879877282963	0
0	3493	475.081494382064	1
0	3495	475.151090940011	2
0	3496	475.208769919398	1
0	3499	475.537662555833	0
0	3503	475.827510630704	1
0	3504	475.866555192268	0
0	3508	476.164317901515	1
0	3509	476.195447828703	0
0	3523	478.361935191934	1
0	3525	478.428466463338	2
0	3526	478.573878622168	1
0	3529	478.902771258603	0
0	3538	481.022024612092	1
0	3539	481.084170764592	0
0	3548	482.566520999122	1
0	3549	482.759521646451	0
0	3553	483.06608880758	1
0	3554	483.088414282886	0
0	3558	483.297728831367	1
0	3559	483.417306919321	0
0	3568	484.429404555619	1
0	3569	484.446601336368	0
0	3593	490.397681048927	1
0	3594	490.581078002081	0
0	3603	491.966068866043	1
0	3604	492.163316444632	0
0	3608	492.191325538854	1
0	3609	492.492209081067	0
0	3623	495.476933017152	1
0	3627	495.796859164739	2
0	3628	495.931454826332	1
0	3631	496.093599186002	2
0	3633	496.112050572104	3
0	3634	496.260347462767	2
0	3637	496.589240099202	1
0	3641	496.817782999144	2
0	3642	496.918132735637	1
0	3645	497.247025372072	0
0	3649	497.332269181557	1
0	3651	497.332507673374	2
0	3652	497.575918008507	1
0	3655	497.904810644942	0
0	3659	498.099856816024	1
0	3661	498.208618500628	2
0	3662	498.233703281377	1
0	3665	498.562595917812	0
0	3679	499.958388756908	1
0	3680	500.171983810532	0
0	3684	500.396561719208	1
0	3686	500.45687247115	2
0	3688	500.493041927593	3
0	3689	500.500876446967	2
0	3692	500.829769083402	1
0	3695	501.158661719837	0
0	3704	501.948352195521	1
0	3705	502.001722594561	0
0	3719	504.010404889941	1
0	3720	504.134517497597	0
0	3724	504.232117967748	1
0	3725	504.463410134032	0
0	3749	509.326427089782	1
0	3750	509.620355542957	0
0	3764	511.40414011567	1
0	3765	511.419182985374	0
0	3769	511.443107616243	1
0	3770	511.748075621809	0
0	3774	511.850406369418	1
0	3777	512.360205276168	0
0	3800	517.024114150376	1
0	3801	517.233177437065	0
0	3830	521.201347476009	1
0	3831	521.333571341494	0
0	3835	521.419324006464	1
0	3836	521.662463977929	0
0	3840	521.89642939747	1
0	3841	521.991356614364	0
0	3855	524.25901766918	1
0	3857	524.28304148407	2
0	3858	524.286634973504	1
0	3861	524.615527609939	0
0	3885	528.775529911459	1
0	3886	529.045801774165	0
0	3905	533.067049568428	1
0	3906	533.159157415077	0
0	3910	533.446990932471	1
0	3911	533.488050051512	0
0	3920	534.798011101051	1
0	3921	534.808756960907	0
0	3925	535.004894723119	1
0	3928	535.420886615266	0
0	3931	535.484295227038	1
0	3933	535.732101580854	2
0	3934	535.749779251701	1
0	3937	536.078671888136	0
0	3941	536.301286228411	1
0	3942	536.407564524571	0
0	3946	536.420654822772	1
0	3948	536.53857229726	2
0	3949	536.736457161006	1
0	3952	537.065349797441	0
0	3971	543.278624257021	1
0	3973	543.299664576337	2
0	3974	543.56255468671	1
0	3978	543.692171798144	2
0	3980	543.702763060816	3
0	3981	543.891447323145	2
0	3984	544.22033995958	1
0	3987	544.549232596015	0
0	4006	547.752293285473	1
0	4007	547.904379195213	0
0	4016	548.779290608018	1
0	4017	549.020442687897	0
0	4036	553.357481287722	1
0	4038	553.473411865729	2
0	4039	553.509788283072	1
0	4043	553.622383554624	2
0	4045	553.827514856486	3
0	4047	553.83093827415	4
0	4048	553.838680919507	3
0	4052	554.130180762968	4
0	4053	554.167573555942	3
0	4056	554.496466192377	2
0	4060	554.714863682647	3
0	4061	554.825358828812	2
0	4064	555.154251465247	1
0	4068	555.19758055983	2
0	4070	555.249526698964	3
0	4071	555.483144101682	2
0	4075	555.800232772005	3
0	4076	555.812036738117	2
0	4082	556.223413532254	3
0	4084	556.272786735147	4
0	4085	556.424166392476	3
0	4088	556.71183289934	4
0	4089	556.753059028911	3
0	4092	557.081951665346	2
0	4095	557.410844301781	1
0	4098	557.739736938216	0
0	4117	561.14733594678	1
0	4118	561.3867240761	0
0	4122	561.683255585729	1
0	4124	561.693917410802	2
0	4125	561.715616712535	1
0	4129	561.980524401014	2
0	4130	562.04450934897	1
0	4133	562.373401985405	0
0	4137	562.443866739648	1
0	4138	562.70229462184	0
0	4147	563.324244239349	1
0	4148	563.645228399626	0
0	4157	564.291940725594	1
0	4158	564.515086446838	0
0	4162	564.536126033976	1
0	4164	564.567404707711	2
0	4165	564.843979083273	1
0	4169	565.156655292559	2
0	4170	565.172871719708	1
0	4173	565.501764356143	0
0	4177	565.782879438124	1
0	4178	565.830656992578	0
0	4197	569.229116069871	1
0	4198	569.554643037844	0
0	4207	570.827165649996	1
0	4208	571.000605486011	0
0	4227	577.031195211571	1
0	4230	577.472204110986	0
0	4238	578.169055049604	1
0	4239	578.42147965373	0
0	4243	578.494986641201	1
0	4244	578.750372290165	0
0	4283	585.623003676279	1
0	4284	585.654527945162	0
0	4288	585.917254890926	1
0	4289	585.983420581597	0
0	4313	589.698018555544	1
0	4314	589.869253720706	0
0	4348	595.822716811464	1
0	4349	596.081895045735	0
0	4429	612.608374258995	1
0	4430	612.905246765768	0
0	4434	613.008514072033	1
0	4436	613.214206270843	2
0	4437	613.234139402203	1
0	4440	613.563032038638	0
0	4449	617.554723594711	1
0	4451	617.625989445716	2
0	4452	617.747789415486	1
0	4456	617.819144721186	2
0	4457	618.076682051921	1
0	4461	618.261570865288	2
0	4462	618.405574688356	1
0	4465	618.734467324791	0
0	4469	618.967285466945	1
0	4470	619.063359961226	0
0	4479	619.703902606943	1
0	4480	619.99779378603	0
0	4509	623.978616168622	1
0	4511	624.080903376939	2
0	4512	624.145075121482	1
0	4516	624.156752457333	2
0	4517	624.473967757917	1
0	4520	624.802860394352	0
0	4529	625.692117385214	1
0	4531	625.811077418166	2
0	4534	626.166529535476	1
0	4537	626.240419409703	2
0	4539	626.358865344969	3
0	4540	626.495422171911	2
0	4543	626.824314808346	1
0	4546	627.153207444781	0
0	4550	627.387231597616	1
0	4551	627.482100081216	0
0	4565	629.795668026722	1
0	4566	629.907465137031	0
0	4575	631.214642227185	1
0	4576	631.432287430997	0
0	4585	631.911078643476	1
0	4586	632.187021080285	0
0	4590	632.369808224212	1
0	4592	632.385497650618	2
0	4593	632.51591371672	1
0	4597	632.625650492442	2
0	4598	632.844806353155	1
0	4601	633.17369898959	0
0	4630	638.022113448241	1
0	4631	638.200384271548	0
0	4650	639.93065574478	1
0	4651	640.041052508466	0
0	4655	640.152527938338	1
0	4656	640.369945144901	0
0	4660	640.471481592626	1
0	4662	640.577549156572	2
0	4663	640.698837781336	1
0	4667	640.888591058225	2
0	4669	640.897455130066	3
0	4670	641.027730417771	2
0	4673	641.356623054206	1
0	4677	641.381534658283	2
0	4678	641.685515690641	1
0	4683	642.297645345	0
0	4691	642.774929072702	1
0	4692	642.958911729891	0
0	4711	647.195424466806	1
0	4712	647.402634782253	0
0	4716	647.582033104225	1
0	4717	647.731527418688	0
0	4731	649.718084944988	1
0	4732	649.835325801993	0
0	4736	649.89278095457	1
0	4737	650.164218438428	0
0	4786	661.85602187496	1
0	4787	661.986623517428	0
0	4796	663.83305557314	1
0	4797	663.872584293091	0
0	4806	664.708195604367	1
0	4807	664.832380376924	0
0	4811	665.017557832185	1
0	4812	665.161273013359	0
0	4826	666.993533076555	1
0	4827	667.13961397836	0
0	4837	669.343007059395	1
0	4838	669.517590228961	0
0	4842	669.575925940149	1
0	4843	669.846482865396	0
0	4852	670.921273705719	1
0	4853	671.179901447598	0
0	4877	678.553415278927	1
0	4878	678.700797058498	0
0	4902	686.524577220107	1
0	4903	686.695234647604	0
0	4922	690.799597088191	1
0	4923	690.99694402546	0
0	4927	691.21813353616	1
0	4928	691.325836661895	0
0	4947	695.274187136809	1
0	4948	695.536805547127	0
0	4982	702.67372043605	1
0	4985	703.092753595057	0
0	4988	703.191003727905	1
0	4989	703.421646231492	0
0	4993	703.51685157966	1
0	4994	703.750538867927	0
0	5003	704.106049970142	1
0	5004	704.428979368642	0
0	5008	704.719330656083	1
0	5009	704.757872005077	0
0	5013	704.935124728716	1
0	5014	705.086764641512	0
0	5023	705.666860577585	1
0	5024	705.898887851218	0
0	5063	714.501336885065	1
0	5064	714.59812321395	0
0	5073	715.655539394269	1
0	5074	715.893531879728	0
0	5078	715.956717900357	1
0	5080	716.189719769357	2
0	5081	716.222424516163	1
0	5085	716.289399511392	2
0	5087	716.509532276969	3
0	5089	716.550509555861	4
0	5090	716.551317152598	3
0	5093	716.880209789033	2
0	5096	717.209102425468	1
0	5099	717.537995061903	0
0	5149	727.427697123303	1
0	5151	727.652745027372	2
0	5152	727.659961487991	1
0	5156	727.721050480862	2
0	5157	727.988854124426	1
0	5160	728.317746760861	0
0	5169	729.0034317263	1
0	5170	729.099619669787	0
0	5174	729.193627692112	1
0	5176	729.200561144777	2
0	5177	729.428512306222	1
0	5180	729.757404942657	0
0	5199	733.750894139455	1
0	5200	733.912238085906	0
0	5239	739.633550119769	1
0	5240	739.85807184019	0
0	5259	743.201497829031	1
0	5261	743.340388036157	2
0	5262	743.352684059307	1
0	5266	743.44057737992	2
0	5267	743.681576695742	1
0	5270	744.010469332177	0
0	5310	754.416372411793	1
0	5311	754.574684699353	0
0	5315	754.665225381761	1
0	5316	754.903577335788	0
0	5340	758.409684621661	1
0	5342	758.426307675282	2
0	5343	758.455223183084	1
0	5346	758.784115819519	0
0	5355	759.424222203129	1
0	5357	759.466504297242	2
0	5358	759.584007616267	1
0	5362	759.595248148895	2
0	5363	759.912900252702	1
0	5367	760.176819866391	2
0	5368	760.241792889137	1
0	5371	760.570685525572	0
0	5380	761.179943297452	1
0	5381	761.390143992521	0
0	5390	763.224939947034	1
0	5392	763.310998555503	2
0	5393	763.536119524853	1
0	5397	763.599980669225	2
0	5398	763.865012161288	1
0	5401	764.193904797723	0
0	5405	764.321245510146	1
0	5406	764.522797434158	0
0	5410	764.630345595495	1
0	5411	764.851690070593	0
0	5415	764.891846588542	1
0	5416	765.180582707028	0
0	5441	769.926063760878	1
0	5442	770.248732792223	0
0	5446	770.313628597374	1
0	5447	770.577625428658	0
0	5451	770.601219679577	1
0	5452	770.906518065093	0
0	5456	771.160427248021	1
0	5457	771.235410701528	0
0	5461	771.333772498673	1
0	5463	771.506205851166	2
0	5464	771.564303337963	1
0	5468	771.638339491703	2
0	5470	771.759332855575	3
0	5471	771.893195974398	2
0	5475	771.915999808472	3
0	5476	772.222088610833	2
0	5480	772.230651928004	3
0	5481	772.550981247268	2
0	5484	772.879873883703	1
0	5487	773.208766520138	0
0	5511	777.586797203171	1
0	5513	777.618652694087	2
0	5514	777.874694193566	1
0	5517	778.203586830001	0
0	5521	778.428130444797	1
0	5522	778.532479466436	0
0	5531	780.65438723158	1
0	5532	780.922194822189	0
0	5546	783.382529304837	1
0	5547	783.515571318424	0
0	5556	786.253460484546	1
0	5557	786.467219351639	0
0	5571	787.980540726923	1
0	5572	788.232324240098	0
0	5592	791.15106267133	1
0	5594	791.284698327673	2
0	5595	791.296237691631	1
0	5598	791.625130328066	0
0	5607	792.705813777008	1
0	5608	792.717050992195	0
0	5627	795.347670731243	1
0	5628	795.393609931378	0
0	5637	796.874725261356	1
0	5638	797.015562528429	0
0	5672	802.277187186786	1
0	5673	802.340589934473	0
0	5687	805.283463755591	1
0	5688	805.565247274548	0
0	5697	807.029074099349	1
0	5698	807.164515117728	0
0	5727	812.136708339471	1
0	5728	812.374148352231	0
0	5732	812.48527748721	1
0	5734	812.530792569951	2
0	5735	812.703040988666	1
0	5740	813.315170643025	0
0	5743	813.404073132714	1
0	5744	813.64406327946	0
0	5753	814.295044846297	1
0	5754	814.391980505924	0
0	5768	816.412282754808	1
0	5769	816.436953985981	0
0	5778	817.119282794419	1
0	5779	817.21230230991	0
0	5783	817.285946380289	1
0	5784	817.541194946345	0
0	5788	817.772797938894	1
0	5789	817.87008758278	0
0	5793	817.966793719494	1
0	5795	818.104350324239	2
0	5796	818.198980219215	1
0	5799	818.52787285565	0
0	5808	819.884268000238	1
0	5809	819.906635165175	0
0	5833	824.062833788079	1
0	5834	824.203281795568	0
0	5904	836.41701071828	1
0	5905	836.642387808751	0
0	5934	841.525539206392	1
0	5936	841.560441545661	2
0	5937	841.584434651727	1
0	5940	841.913327288162	0
0	5959	846.773917282163	1
0	5960	846.867469161983	0
0	5964	846.989856869074	1
0	5965	847.196361798418	0
0	5994	856.737871447367	1
0	5996	856.911479996851	2
0	5997	857.023713382231	1
0	6000	857.352606018666	0
0	6041	864.232117333954	1
0	6042	864.480684197653	0
0	6045	864.654338448024	1
0	6046	864.809576834088	0
0	6055	865.638594380894	1
0	6056	865.71215530964	0
0	6060	865.81978646011	1
0	6061	866.041047946075	0
0	6065	866.315605208812	1
0	6066	866.36994058251	0
0	6075	867.039075574275	1
0	6077	867.134948697676	2
0	6078	867.362539680577	1
0	6081	867.691432317012	0
0	6095	871.325710770453	1
0	6096	871.330197227125	0
0	6100	871.37799229476	1
0	6101	871.65908986356	0
0	6120	874.100237148756	1
0	6121	874.141484284616	0
0	6125	874.186608014412	1
0	6126	874.470376921051	0
0	6150	878.851595991218	1
0	6151	879.097443457949	0
0	6155	879.381205879993	1
0	6156	879.426336094384	0
0	6160	879.506453861753	1
0	6161	879.755228730819	0
0	6165	880.038460157114	1
0	6166	880.084121367254	0
0	6175	880.543119173548	1
0	6176	880.859482118196	0
0	6190	882.395473340536	1
0	6192	882.455831080924	2
0	6194	882.582934918046	3
0	6197	882.92292949165	2
0	6199	883.251822128085	1
0	6202	883.58071476452	0
0	6206	883.672418129394	1
0	6207	883.909607400955	0
0	6226	885.94539877984	1
0	6228	886.203062835136	2
0	6229	886.236585185543	1
0	6232	886.565477821978	0
0	6236	886.877910762216	1
0	6237	886.894370458413	0
0	6271	892.258787606707	1
0	6272	892.541845219103	0
0	6301	896.668450633632	1
0	6302	896.863927293607	0
0	6306	897.077796941623	1
0	6307	897.192819930042	0
0	6321	899.981261143449	1
0	6322	900.162559656378	0
0	6336	902.169410283556	1
0	6337	902.485377189741	0
0	6343	902.828238032245	1
0	6344	903.0975068441	0
0	6352	903.797685068013	1
0	6354	903.896263277921	2
0	6355	903.912882207874	1
0	6359	904.140321019085	2
0	6360	904.241774844309	1
0	6363	904.570667480744	0
0	6377	906.664016294236	1
0	6379	906.672970652703	2
0	6380	906.866346645374	1
0	6383	907.195239281809	0
0	6387	907.384984481501	1
0	6388	907.524131918244	0
0	6392	907.808609596987	1
0	6393	907.853024554679	0
0	6402	910.567431411774	1
0	6403	910.818888721423	0
0	6417	915.393690932501	1
0	6419	915.527045522716	2
0	6421	915.600913244881	3
0	6422	915.668227763405	2
0	6425	915.99712039984	1
0	6428	916.326013036275	0
0	6447	919.091028003864	1
0	6448	919.277657940032	0
0	6452	919.605931905783	1
0	6453	919.606550576467	0
0	6462	920.045239094671	1
0	6463	920.337084038256	0
0	6482	921.951768665968	1
0	6483	921.990211778369	0
0	6487	922.256669741324	1
0	6488	922.319104414804	0
0	6503	923.919688792041	1
0	6504	924.048750216492	0
0	6508	924.244996098256	1
0	6510	924.279287903005	2
0	6511	924.377642852927	1
0	6514	924.706535489362	0
0	6543	932.013381607714	1
0	6545	932.10115232829	2
0	6547	932.115306591479	3
0	6548	932.180969625535	2
0	6551	932.50986226197	1
0	6554	932.838754898405	0
0	6563	934.127354233515	1
0	6565	934.368357554421	2
0	6566	934.393660346474	1
0	6570	934.460219986698	2
0	6572	934.544626184492	3
0	6573	934.722552982909	2
0	6577	934.860128319692	3
0	6578	935.051445619344	2
0	6581	935.380338255779	1
0	6584	935.709230892214	0
0	6588	935.859196472493	1
0	6590	935.888141013777	2
0	6592	935.913301993498	3
0	6593	936.038123528649	2
0	6596	936.367016165084	1
0	6599	936.695908801519	0
0	6608	937.592014506315	1
0	6609	937.679355100415	0
0	6618	938.086468643843	1
0	6619	938.343402754125	0
0	6628	938.981541647669	1
0	6630	939.18712261532	2
0	6631	939.221617497772	1
0	6635	939.467591965552	2
0	6636	939.550510134207	1
0	6640	939.764226095369	2
0	6641	939.879402770642	1
0	6647	940.321011483086	2
0	6648	940.491532425001	1
0	6651	940.62675173294	2
0	6653	940.705144138254	3
0	6654	940.820425061436	2
0	6658	940.880909973354	3
0	6660	941.056485910149	4
0	6661	941.149317697871	3
0	6665	941.184192477105	4
0	6666	941.478210334306	3
0	6669	941.807102970741	2
0	6672	942.135995607176	1
0	6676	942.145196013074	2
0	6677	942.464888243611	1
0	6681	942.646933361141	2
0	6682	942.793780880046	1
0	6685	943.122673516481	0
0	6689	943.235640305017	1
0	6691	943.246299002917	2
0	6692	943.451566152916	1
0	6695	943.780458789351	0
0	6714	945.813640198164	1
0	6715	946.101488350629	0
0	6759	953.553115797872	1
0	6760	953.673050852453	0
0	6764	953.810335249904	1
0	6766	953.950064646019	2
0	6767	954.001943488888	1
0	6770	954.330836125323	0
0	6779	954.852802886203	1
0	6780	955.09218555666	0
0	6800	957.853174410972	1
0	6801	958.054728552107	0
0	6835	964.468539414336	1
0	6836	964.510204982789	0
0	6840	964.689045888044	1
0	6841	964.839097619224	0
0	6850	965.681265609874	1
0	6852	965.929489168079	2
0	6853	965.931381272487	1
0	6856	966.260273908922	0
0	6860	966.399994610394	1
0	6861	966.589166545357	0
0	6865	966.678442937878	1
0	6866	966.918059181792	0
0	6870	966.953357386513	1
0	6872	966.958084662064	2
0	6874	967.172826691646	3
0	6875	967.246951818227	2
0	6879	967.467327566896	3
0	6880	967.575844454662	2
0	6883	967.904737091097	1
0	6886	968.233629727532	0
0	6895	968.782833289702	1
0	6897	968.910251589611	2
0	6898	968.955944563753	1
0	6902	969.09253396304	2
0	6903	969.284837200188	1
0	6907	969.373262675591	2
0	6908	969.613729836623	1
0	6912	969.630254154061	2
0	6913	969.942622473058	1
0	6916	970.271515109493	0
0	6920	970.400768437826	1
0	6922	970.550073977669	2
0	6923	970.600407745928	1
0	6927	970.688524798366	2
0	6928	970.929300382363	1
0	6932	971.246097581657	2
0	6933	971.258193018798	1
0	6937	971.493712829389	2
0	6938	971.587085655233	1
0	6942	971.705179929062	2
0	6944	971.714849274477	3
0	6945	971.915978291668	2
0	6951	972.415127961559	3
0	6952	972.528107946027	2
0	6954	972.857000582462	1
0	6957	973.185893218897	0
0	6966	975.980281490403	1
0	6967	976.303803261923	0
0	6971	976.458947413359	1
0	6972	976.632695898358	0
0	6976	976.893314350779	1
0	6977	976.961588534793	0
0	6991	979.114243319291	1
0	6992	979.181382060179	0
0	7046	992.951749367419	1
0	7047	993.270389388856	0
0	7051	993.396376189166	1
0	7053	993.477426367516	2
0	7054	993.599282025291	1
0	7058	993.700732095752	2
0	7059	993.928174661726	1
0	7062	994.257067298161	0
0	7066	994.343023785511	1
0	7068	994.346990901012	2
0	7069	994.585959934596	1
0	7072	994.914852571031	0
0	7096	998.587260888747	1
0	7099	998.947283922041	0
0	7102	998.949093772266	1
0	7103	999.276176558476	0
0	7107	999.545512937883	1
0	7108	999.605069194911	0
1	5	1.305316276368	0.328892636435
1	10	2.065032498127	0.328892636435
1	15	2.90283375113	0.328892636435
1	20	3.78644340544	0.328892636435
1	25	4.755877349297	0.328892636435
1	30	6.097034412751	0.328892636435
1	35	6.74097342847	0.328892636435
1	40	7.972523466169	0.328892636435
1	45	8.437245240872	0.328892636435
1	52	8.926099084796	0.328892636435
1	55	9.254991721231	0.474593544359
1	60	10.996972419089	0.328892636435
1	65	12.738280139934	0.328892636435
1	70	13.248587590473	0.328892636435
1	75	14.111406465751	0.328892636435
1	80	16.167621163976	0.328892636435
1	85	18.559087427917	0.328892636435
1	90	18.982829426115	0.328892636435
1	97	19.793246351114	0.328892636435
1	100	20.122138987549	0.368381288799
1	105	20.493525842824	0.328892636435
1	112	21.319260144266	0.328892636435
1	115	21.648152780701	0.492391075937
1	120	22.21930686113	0.328892636435
1	125	23.406841056887	0.328892636435
1	134	25.68327135301	0.328892636435
1	137	26.012163989445	0.615685483105
1	140	26.34105662588	0.842420251054
1	145	27.457464726463	0.328892636435
1	150	28.187688946071	0.328892636435
1	156	29.034443292126	0.328892636435
1	161	29.923698420173	0.328892636435
1	166	30.969569688156	0.328892636435
1	171	31.534377038939	0.328892636435
1	176	32.135932453035	0.328892636435
1	181	32.565133497123	0.328892636435
1	186	34.600850403247	0.328892636435
1	191	36.601215585953	0.328892636435
1	196	37.358691525853	0.328892636435
1	203	39.258601960379	0.328892636435
1	208	39.587494596814	0.359449546062
1	211	39.916387233249	0.555227692404
1	218	41.354361250879	0.328892636435
1	223	41.683253887314	0.502527340372
1	228	42.012146523749	0.336355974189
1	231	42.341039160184	0.333716896186
1	236	42.971794197408	0.328892636435
1	245	43.36975574004	0.328892636435
1	248	43.698648376475	0.449826579541
1	251	44.02754101291	0.775165412355
1	258	44.518190521603	0.328892636435
1	261	44.847083158038	0.453546901543
1	266	45.494872735789	0.328892636435
1	271	45.924257004121	0.328892636435
1	276	46.510129971494	0.328892636435
1	283	47.209548058533	0.328892636435
1	288	47.538440694968	0.642634532674
1	295	47.867333331403	0.456751326926
1	302	48.196225967838	0.636517498899
1	307	48.525118604273	0.680897366642
1	313	49.137248258632	1.192564843091
1	318	49.466140895067	1.305442840586
1	321	49.795033531502	1.328256995886
1	324	50.123926167937	1.080551170135
1	331	50.452818804372	1.026770059872
1	334	50.781711440807	0.611123144458
1	337	51.110604077242	0.91085011354
1	342	53.426012920774	0.328892636435
1	349	53.794808041164	0.328892636435
1	352	54.123700677599	0.360696664656
1	359	54.611771951413	0.328892636435
1	364	54.940664587848	0.355714481783
1	367	55.269557224283	0.63759173048
1	372	57.249684145643	0.328892636435
1	377	58.707674115004	0.328892636435
1	382	59.159068673583	0.328892636435
1	391	59.641001707307	0.328892636435
1	398	59.969894343742	0.641078503949
1	401	60.298786980177	0.917144312679
1	404	60.627679616612	0.75648971498
1	409	60.956572253047	1.053566042428
1	414	61.285464889482	0.400649672895
1	417	61.614357525917	0.609211284367
1	422	62.388420865521	0.328892636435
1	431	63.264950014616	0.328892636435
1	436	63.593842651051	0.442226842628
1	439	63.922735287486	0.770506685253
1	442	64.251627923921	0.849565841559
1	447	64.689544012011	0.328892636435
1	452	65.376936955485	0.328892636435
1	460	66.183607605374	0.328892636435
1	463	66.512500241809	0.645034121903
1	468	67.11587685873	0.328892636435
1	475	68.583185107942	0.328892636435
1	478	68.912077744377	0.531521662844
1	487	69.317575113258	0.328892636435
1	490	69.646467749693	0.636105554684
1	493	69.975360386128	0.690033795584
1	500	70.323614486028	0.328892636435
1	503	70.652507122463	0.573061679196
1	508	72.843573327108	0.328892636435
1	515	73.450333775602	0.328892636435
1	518	73.779226412037	0.338525471611
1	523	74.680442948698	0.328892636435
1	530	75.016794288809	0.328892636435
1	533	75.345686925244	0.551876808709
1	540	75.783617112715	0.328892636435
1	543	76.11250974915	0.552482318661
1	548	76.997293014399	0.328892636435
1	553	79.615952926619	0.328892636435
1	558	80.521297503356	0.328892636435
1	563	81.574839206427	0.328892636435
1	568	82.305501829335	0.328892636435
1	573	82.711305960483	0.328892636435
1	580	83.471050419115	0.328892636435
1	583	83.79994305555	0.462968701147
1	590	84.258380732691	0.328892636435
1	595	84.587273369126	0.471166597699
1	598	84.916166005561	0.340586719991
1	603	86.157193461771	0.328892636435
1	609	86.76932311613	0.478844342499
1	616	87.449207676348	0.328892636435
1	619	87.778100312783	0.469848854405
1	624	88.799545120536	0.328892636435
1	631	90.273450556486	0.328892636435
1	634	90.602343192921	0.363696307626
1	639	91.119771055949	0.328892636435
1	646	92.644015222618	0.328892636435
1	649	92.972907859053	0.563866062753
1	654	93.397973591912	0.328892636435
1	659	94.20355983413	0.328892636435
1	664	94.851021787374	0.328892636435
1	671	96.939755135516	0.328892636435
1	674	97.268647771951	0.526452668921
1	681	97.895909202393	0.328892636435
1	684	98.224801838828	0.584657727559
1	691	98.725349982134	0.328892636435
1	694	99.054242618569	0.632342064929
1	699	100.268183864689	0.328892636435
1	706	102.115315298421	0.328892636435
1	709	102.444207934856	0.555268014818
1	714	103.112876921037	0.328892636435
1	723	103.497728762452	0.328892636435
1	730	103.826621398887	0.604057554525
1	733	104.155514035322	0.885912444281
1	736	104.484406671757	0.768299924442
1	739	104.813299308192	1.035770949314
1	746	105.86748762332	0.328892636435
1	749	106.196380259755	0.412972143252
1	756	107.875401098493	0.328892636435
1	760	108.487530752852	0.818112788903
1	769	109.022072991348	0.328892636435
1	772	109.350965627783	0.585615257592
1	777	109.679858264218	0.796132616778
1	780	110.008750900653	0.390257659302
1	785	110.43261474292	0.328892636435
1	792	111.934736245352	0.328892636435
1	795	112.263628881787	0.625062546354
1	800	113.30272108333	0.328892636435
1	805	113.677090461531	0.328892636435
1	814	114.881463240175	0.328892636435
1	817	115.21035587661	0.527376291939
1	822	115.539248513045	0.844672144384
1	825	115.86814114948	0.625259140827
1	830	117.521270440937	0.328892636435
1	837	118.22659396678	0.328892636435
1	840	118.555486603215	0.580417286488
1	847	119.472219491553	0.328892636435
1	850	119.801112127988	0.636352889228
1	857	120.728174375725	0.328892636435
1	862	121.05706701216	0.370713890334
1	865	121.385959648595	0.338454026606
1	872	122.41489109116	0.328892636435
1	875	122.743783727595	0.549504396609
1	880	123.330903254248	0.328892636435
1	885	123.727879777242	0.328892636435
1	890	124.189656977382	0.328892636435
1	897	125.11929509305	0.328892636435
1	900	125.448187729485	0.611344008313
1	905	127.365389300884	0.328892636435
1	913	128.895873343547	0.328892636435
1	916	129.224765979982	0.657046543449
1	923	130.146932126182	0.328892636435
1	930	130.475824762617	0.490236319413
1	935	130.804717399052	0.582101649582
1	938	131.133610035487	0.827994662596
1	947	131.462502671922	0.756858950806
1	950	131.791395308357	0.549668552364
1	957	132.120287944792	0.872557515633
1	966	132.449180581227	1.045102108449
1	969	132.778073217662	0.837463962442
1	972	133.106965854097	1.011678209726
1	979	133.435858490532	1.125046009967
1	982	133.764751126967	1.377137659581
1	989	134.093643763402	1.665343307405
1	992	134.422536399837	1.187828066122
1	997	134.751429036272	1.367062007721
1	1000	135.080321672707	1.050466965323
1	1003	135.409214309142	1.358618044264
1	1006	135.738106945577	1.110143441087
1	1013	138.543975822627	0.328892636435
1	1016	138.872868459062	0.611875650148
1	1023	139.380267354666	0.328892636435
1	1026	139.709159991101	0.553020963054
1	1033	140.572539762248	0.328892636435
1	1036	140.901432398683	0.444752222756
1	1043	141.278689680171	0.328892636435
1	1046	141.607582316606	0.593966257116
1	1053	142.491997802074	0.328892636435
1	1056	142.820890438509	0.449559226674
1	1062	145.378579762865	0.328892636435
1	1067	146.67628414675	0.328892636435
1	1076	148.851894850751	0.328892636435
1	1079	149.180787487186	0.485815512013
1	1084	149.509680123621	0.763242837804
1	1087	149.838572760056	0.509760742639
1	1094	150.710309318756	0.328892636435
1	1099	151.039201955191	0.381249753694
1	1104	151.368094591626	0.537655452845
1	1107	151.696987228061	0.344937968507
1	1112	152.042995559368	0.328892636435
1	1117	152.865521397678	0.328892636435
1	1122	156.010901612406	0.328892636435
1	1127	156.55842284929	0.328892636435
1	1136	157.548795503113	0.328892636435
1	1145	157.877688139548	0.561338422229
1	1148	158.206580775983	0.834146029559
1	1151	158.535473412418	0.981705767911
1	1154	158.864366048853	1.194993352366
1	1157	159.193258685288	1.502492000323
1	1164	159.807338482795	0.328892636435
1	1167	160.13623111923	0.575359474562
1	1172	160.852298506465	0.328892636435
1	1179	161.474270379544	0.328892636435
1	1182	161.803163015979	0.373968459755
1	1187	162.397692476027	0.328892636435
1	1194	163.108587756928	0.328892636435
1	1197	163.437480393363	0.371041037462
1	1202	164.397369879631	0.328892636435
1	1209	165.665396003766	0.328892636435
1	1217	166.277525658125	0.902833495672
1	1220	166.60641829456	0.382242884598
1	1225	166.935310930995	0.662078570895
1	1230	167.26420356743	0.439637807549
1	1235	167.593096203865	0.439419057449
1	1238	167.9219888403	0.499732442644
1	1243	170.263623607409	0.328892636435
1	1248	171.842230130608	0.328892636435
1	1253	172.601385377208	0.328892636435
1	1260	173.098767707881	0.328892636435
1	1263	173.427660344316	0.637209068466
1	1270	174.236149053531	0.328892636435
1	1273	174.565041689966	0.621277541921
1	1278	175.056433207234	0.328892636435
1	1283	175.47397650575	0.328892636435
1	1288	175.894902433468	0.328892636435
1	1293	177.504677950674	0.328892636435
1	1300	178.310804423977	0.328892636435
1	1303	178.639697060412	0.344068088632
1	1308	179.29266429958	0.328892636435
1	1319	181.396248360864	0.328892636435
1	1326	181.725140997299	0.623602013187
1	1331	182.054033633734	0.861638574902
1	1334	182.382926270169	1.024574433224
1	1341	182.711818906604	1.314534175398
1	1344	183.040711543039	1.398314941771
1	1349	183.369604179474	1.636576160107
1	1352	183.698496815909	1.129087956912
1	1355	184.027389452344	1.450263741815
1	1360	184.356282088779	1.315099526387
1	1370	184.968411743138	0.797218790191
1	1375	185.297304379573	0.857952404776
1	1378	185.626197016008	1.177743520689
1	1381	185.955089652443	1.257480828229
1	1384	186.283982288878	1.195776300536
1	1389	186.968710568208	0.328892636435
1	1394	187.357301041575	0.328892636435
1	1399	188.057472972356	0.328892636435
1	1406	188.553473526633	0.328892636435
1	1413	188.882366163068	0.632003571538
1	1418	189.211258799503	0.567988114837
1	1423	189.540151435938	0.842338628448
1	1428	189.869044072373	0.979888729178
1	1431	190.197936708808	0.962767832853
1	1434	190.526829345243	0.865866026491
1	1439	191.828478912291	0.328892636435
1	1444	192.930575876446	0.328892636435
1	1451	195.10473509518	0.328892636435
1	1454	195.433627731615	0.65415849079
1	1461	196.410078673709	0.328892636435
1	1464	196.738971310144	0.357798367579
1	1471	197.44821862878	0.328892636435
1	1474	197.777111265215	0.372830604579
1	1481	198.468133976109	0.328892636435
1	1484	198.797026612544	0.483438335971
1	1491	199.348643158174	0.328892636435
1	1496	199.677535794609	0.430236650765
1	1499	200.006428431044	0.395138977
1	1504	201.125654609627	0.328892636435
1	1509	202.116899073311	0.328892636435
1	1517	203.619141291609	0.328892636435
1	1520	203.948033928044	0.377175593673
1	1525	204.763967908767	0.328892636435
1	1530	206.134874279872	0.328892636435
1	1535	206.713371203235	0.328892636435
1	1540	207.477654355852	0.328892636435
1	1547	209.359895053456	0.328892636435
1	1550	209.688787689891	0.501641864041
1	1559	210.452959299695	0.328892636435
1	1562	210.78185193613	0.615709145416
1	1567	211.110744572565	0.716996924082
1	1570	211.439637209	0.422033621204
1	1575	213.823036197867	0.328892636435
1	1582	214.298155226417	0.328892636435
1	1585	214.627047862852	0.519983125768
1	1590	215.144382537362	0.328892636435
1	1599	215.83084182171	0.328892636435
1	1604	216.159734458145	0.647295616229
1	1607	216.48862709458	0.905531375141
1	1610	216.817519731015	0.749739840635
1	1615	217.499099214589	0.328892636435
1	1620	217.962388793418	0.328892636435
1	1627	218.460860509864	0.328892636435
1	1630	218.789753146299	0.408562355749
1	1637	219.228766007322	0.328892636435
1	1640	219.557658643757	0.562402346148
1	1647	221.319144927321	0.328892636435
1	1654	221.648037563756	0.598418219699
1	1657	221.976930200191	0.354322852664
1	1660	222.305822836626	0.674878482456
1	1668	224.400928784299	0.328892636435
1	1671	224.729821420734	0.473304767757
1	1676	227.058065107653	0.328892636435
1	1687	227.963866108853	0.328892636435
1	1690	228.292758745288	0.593968142723
1	1693	228.621651381723	0.772327609164
1	1696	228.950544018158	1.067033297123
1	1701	229.331235476483	0.328892636435
1	1706	230.549827317268	0.328892636435
1	1711	231.395939093638	0.328892636435
1	1716	232.615262223835	0.328892636435
1	1721	233.920070191577	0.328892636435
1	1728	234.540332649068	0.328892636435
1	1733	234.869225285503	0.373580341746
1	1736	235.198117921938	0.450322943109
1	1745	235.978805409298	0.328892636435
1	1748	236.307698045733	0.632475562615
1	1751	236.636590682168	0.808251542896
1	1758	238.247800234141	0.328892636435
1	1761	238.576692870576	0.616479190886
1	1770	240.149654442897	0.328892636435
1	1773	240.478547079332	0.627525138915
1	1776	240.807439715767	0.848714232645
1	1781	241.550820540585	0.328892636435
1	1788	241.950946969869	0.328892636435
1	1793	242.279839606304	0.388703746859
1	1798	242.608732242739	0.380312290101
1	1801	242.937624879174	0.376736459762
1	1808	243.961491618269	0.328892636435
1	1813	244.290384254704	0.599463910664
1	1821	244.902513909063	0.646308010878
1	1824	245.231406545498	0.757181204382
1	1829	245.560299181933	1.003421456214
1	1832	245.889191818368	0.586963641372
1	1839	246.437202324522	0.328892636435
1	1846	246.766094960957	0.507190207761
1	1849	247.094987597392	0.498581917988
1	1852	247.423880233827	0.741899433564
1	1857	248.337198713853	0.328892636435
1	1866	253.512562266552	0.328892636435
1	1869	253.841454902987	0.511889552108
1	1874	254.170347539422	0.714111565952
1	1879	254.499240175857	0.46132811112
1	1882	254.828132812292	0.566022230268
1	1887	256.524040117953	0.328892636435
1	1892	257.102560037808	0.328892636435
1	1897	258.089105389592	0.328892636435
1	1902	258.519133800963	0.328892636435
1	1907	259.862602563999	0.328892636435
1	1914	261.007238578821	0.328892636435
1	1919	261.336131215256	0.622508696124
1	1924	261.665023851691	0.554503648183
1	1927	261.993916488126	0.508347225874
1	1934	262.810541959727	0.328892636435
1	1937	263.139434596162	0.367188921028
1	1942	264.112356698466	0.328892636435
1	1947	264.911244618159	0.328892636435
1	1952	265.476560352044	0.328892636435
1	1959	266.135206931378	0.328892636435
1	1964	266.464099567813	0.496919855321
1	1968	267.076229222172	0.828740476542
1	1975	267.799398059162	0.328892636435
1	1980	268.128290695597	0.616079425961
1	1985	268.457183332032	0.581226040952
1	1990	268.786075968467	0.580732975356
1	1993	269.114968604902	0.365704390813
1	1998	269.821014093428	0.328892636435
1	2005	270.474109453849	0.328892636435
1	2008	270.803002090284	0.596617339411
1	2015	271.929057634967	0.328892636435
1	2022	272.257950271402	0.389568745155
1	2027	272.586842907837	0.58047851189
1	2030	272.915735544272	0.883694575812
1	2033	273.244628180707	0.90188652466
1	2040	273.805894853394	0.328892636435
1	2043	274.134787489829	0.529577237144
1	2048	274.998077002309	0.328892636435
1	2055	275.365068339803	0.328892636435
1	2060	275.693960976238	0.342828804043
1	2065	276.022853612673	0.441080108116
1	2070	276.351746249108	0.5706653789
1	2075	276.680638885543	0.473365145652
1	2078	277.009531521978	0.332342782001
1	2083	277.372914573784	0.328892636435
1	2088	278.665156784265	0.328892636435
1	2095	280.281557734268	0.328892636435
1	2102	280.610450370703	0.436033469767
1	2105	280.939343007138	0.343600196745
1	2108	281.268235643573	0.661380898328
1	2113	282.020958407726	0.328892636435
1	2119	282.827037190156	0.328892636435
1	2124	283.707617569205	0.328892636435
1	2129	284.082356574304	0.328892636435
1	2136	284.898432475028	0.328892636435
1	2139	285.227325111463	0.634692469645
1	2146	285.815620583016	0.328892636435
1	2149	286.144513219451	0.413711243988
1	2154	287.415177687532	0.328892636435
1	2159	290.643862321242	0.328892636435
1	2166	291.478859742188	0.328892636435
1	2171	291.807752378623	0.643557502443
1	2178	292.136645015058	0.478866360782
1	2183	292.465537651493	0.604103317331
1	2186	292.794430287928	0.705657558671
1	2189	293.123322924363	0.72025091164
1	2194	294.172621489679	0.328892636435
1	2199	295.207739572215	0.328892636435
1	2204	295.545586042691	0.328892636435
1	2211	296.362461085559	0.328892636435
1	2216	296.691353721994	0.509415605403
1	2219	297.020246358429	0.414417174399
1	2226	297.750654082336	0.328892636435
1	2229	298.079546718771	0.419007729899
1	2236	299.122033026673	0.328892636435
1	2239	299.450925663108	0.466201736337
1	2246	300.100447195334	0.328892636435
1	2249	300.429339831769	0.386231735222
1	2254	301.194221813573	0.328892636435
1	2263	302.712650799343	0.328892636435
1	2268	303.041543435778	0.57163418972
1	2272	303.653673090137	1.011105853528
1	2277	303.982565726572	1.1750384105
1	2280	304.311458363007	0.501496518295
1	2285	305.465572038293	0.328892636435
1	2290	307.393493717226	0.328892636435
1	2295	308.092434749665	0.328892636435
1	2300	308.985011541174	0.328892636435
1	2305	311.221452628578	0.328892636435
1	2310	311.939761108008	0.328892636435
1	2315	312.447854093793	0.328892636435
1	2320	313.741886237915	0.328892636435
1	2327	314.472874688985	0.328892636435
1	2332	314.80176732542	0.364444324049
1	2337	315.130659961855	0.595594145363
1	2340	315.45955259829	0.418780096641
1	2345	316.992223173918	0.328892636435
1	2352	317.516987362409	0.328892636435
1	2357	317.845879998844	0.549770169846
1	2360	318.174772635279	0.3506005439
1	2365	319.216349394585	0.328892636435
1	2370	320.816427241892	0.328892636435
1	2377	322.293363405757	0.328892636435
1	2382	322.622256042192	0.556703717301
1	2385	322.951148678627	0.631321483462
1	2390	324.840279521075	0.328892636435
1	2395	325.238012397777	0.328892636435
1	2400	325.99909171175	0.328892636435
1	2405	326.896597510273	0.328892636435
1	2412	328.700620288461	0.328892636435
1	2417	329.029512924896	0.346999653456
1	2425	329.641642579255	0.613061084516
1	2430	329.97053521569	0.377929579657
1	2433	330.299427852125	0.680335535663
1	2436	330.62832048856	0.69982701593
1	2441	331.637004940754	0.328892636435
1	2448	332.791812717321	0.328892636435
1	2453	333.120705353756	0.364114842103
1	2460	333.449597990191	0.400629440063
1	2463	333.778490626626	0.460742773178
1	2468	334.107383263061	0.784953241274
1	2471	334.436275899496	0.341411595507
1	2476	334.855324848397	0.328892636435
1	2481	335.457226372455	0.328892636435
1	2486	336.826730073719	0.328892636435
1	2491	338.548663623564	0.328892636435
1	2496	339.607884098109	0.328892636435
1	2501	339.939357103743	0.328892636435
1	2506	340.419244902551	0.328892636435
1	2511	341.432850213045	0.328892636435
1	2518	343.169550005951	0.328892636435
1	2521	343.498442642386	0.408235405719
1	2526	346.732566383239	0.328892636435
1	2531	347.11645845903	0.328892636435
1	2538	348.8359524617	0.328892636435
1	2541	349.164845098135	0.486279886596
1	2546	349.518102930826	0.328892636435
1	2551	350.208777093087	0.328892636435
1	2556	351.00708959237	0.328892636435
1	2561	352.059514909809	0.328892636435
1	2566	352.559934022238	0.328892636435
1	2574	353.172063676597	0.578228523622
1	2581	353.500956313032	0.766087973787
1	2584	353.829848949467	0.421533590654
1	2589	354.158741585902	0.727947072052
1	2592	354.487634222337	0.407405426279
1	2599	354.946975225745	0.328892636435
1	2606	355.27586786218	0.336732681218
1	2615	355.604760498615	0.652565975981
1	2618	355.93365313505	0.694274957507
1	2621	356.262545771485	0.91035314477
1	2624	356.59143840792	1.123120399359
1	2627	356.920331044355	1.35266810397
1	2634	357.458580675453	0.328892636435
1	2637	357.787473311888	0.619793854353
1	2642	358.397834080483	0.328892636435
1	2647	358.766858515651	0.328892636435
1	2656	360.648251878089	0.328892636435
1	2659	360.977144514524	0.618146727652
1	2662	361.306037150959	0.878861485424
1	2667	362.554861456339	0.328892636435
1	2672	364.358020776605	0.328892636435
1	2677	365.696171363508	0.328892636435
1	2682	366.13543370989	0.328892636435
1	2689	366.989505143148	0.328892636435
1	2692	367.318397779583	0.578715946651
1	2697	368.344718343761	0.328892636435
1	2702	369.527720189725	0.328892636435
1	2707	370.726357962166	0.328892636435
1	2712	372.316293195924	0.328892636435
1	2717	375.452641524614	0.328892636435
1	2723	376.492299946391	0.328892636435
1	2728	378.217917223867	0.328892636435
1	2735	380.073854124163	0.328892636435
1	2738	380.402746760598	0.63987637301
1	2745	381.146024462885	0.328892636435
1	2748	381.47491709932	0.333813027151
1	2753	382.200144369474	0.328892636435
1	2758	382.652634207277	0.328892636435
1	2763	385.137350084035	0.328892636435
1	2772	386.161822502602	0.328892636435
1	2775	386.490715139037	0.582985603256
1	2778	386.819607775472	0.692540292082
1	2783	387.796384537208	0.328892636435
1	2792	389.555565494659	0.328892636435
1	2799	389.884458131094	0.509483376862
1	2802	390.213350767529	0.694542272402
1	2805	390.542243403964	0.944562994569
1	2810	390.871136040399	1.068266642389
1	2813	391.200028676834	0.46885712035
1	2818	391.584808159079	0.328892636435
1	2825	392.309596368203	0.328892636435
1	2828	392.638489004638	0.509110487583
1	2833	394.783004948492	0.328892636435
1	2838	395.396586241994	0.328892636435
1	2845	396.28711712441	0.328892636435
1	2852	396.616009760845	0.63901861332
1	2855	396.94490239728	0.462632752642
1	2860	397.273795033715	0.659010432252
1	2863	397.60268767015	0.458579244751
1	2868	397.978054888164	0.328892636435
1	2876	399.697164773735	0.328892636435
1	2879	400.02605741017	0.626351083858
1	2884	401.226083033922	0.328892636435
1	2893	401.729493202182	0.328892636435
1	2900	402.058385838617	0.63279811611
1	2905	402.387278475052	0.808012441577
1	2910	402.716171111487	0.868645968604
1	2915	403.045063747922	1.076198165403
1	2920	403.373956384357	1.008036962469
1	2925	403.702849020792	1.033791924809
1	2928	404.031741657227	1.146814156152
1	2933	404.360634293662	1.077447038788
1	2936	404.689526930097	1.245568675559
1	2941	405.018419566532	0.937371705236
1	2948	405.347312202967	0.586491988189
1	2951	405.676204839402	0.592582084289
1	2956	406.005097475837	0.896099839596
1	2961	406.333990112272	0.5157298496
1	2964	406.662882748707	0.545481149489
1	2969	407.864706695499	0.328892636435
1	2976	408.275638982785	0.328892636435
1	2979	408.60453161922	0.634391112193
1	2988	410.244173124026	0.328892636435
1	2993	410.573065760461	0.605519844114
1	2996	410.901958396896	0.712986084008
1	3001	411.230851033331	0.979548003422
1	3004	411.559743669766	0.579004448182
1	3009	412.41221269434	0.328892636435
1	3018	416.690915074276	0.328892636435
1	3021	417.019807710711	0.445659713263
1	3025	417.63193736507	0.965532032299
1	3030	418.22275422211	0.328892636435
1	3037	418.557772118522	0.328892636435
1	3040	418.886664754957	0.374716639819
1	3049	419.907204682044	0.328892636435
1	3054	420.236097318479	0.656901800831
1	3057	420.564989954914	0.785688395257
1	3062	420.893882591349	0.919752249295
1	3065	421.222775227784	0.531212084114
1	3072	421.905113194753	0.328892636435
1	3083	422.234005831188	0.348424166264
1	3086	422.562898467623	0.610619361443
1	3089	422.891791104058	0.860253216061
1	3094	423.220683740493	0.995120025362
1	3097	423.549576376928	1.32096074177
1	3102	423.878469013363	0.778622805573
1	3105	424.207361649798	0.416620495927
1	3110	424.567168872404	0.328892636435
1	3115	426.542717491447	0.328892636435
1	3120	427.390468651855	0.328892636435
1	3125	427.789163552701	0.328892636435
1	3130	428.470341254783	0.328892636435
1	3139	429.13617632857	0.328892636435
1	3144	429.465068965005	0.515787742644
1	3147	429.79396160144	0.840306963307
1	3150	430.122854237875	0.796222551281
1	3157	430.578463934617	0.328892636435
1	3162	430.907356571052	0.433265184816
1	3165	431.236249207487	0.364419134171
1	3170	432.118819271845	0.328892636435
1	3178	432.990070313345	0.328892636435
1	3183	433.31896294978	0.559929280983
1	3186	433.647855586215	0.526993043909
1	3195	434.764606876065	0.328892636435
1	3200	435.0934995125	0.573961615847
1	3203	435.422392148935	0.872901386399
1	3206	435.75128478537	0.903912527365
1	3211	437.005702401177	0.328892636435
1	3216	438.214423443298	0.328892636435
1	3221	439.902286685473	0.328892636435
1	3226	440.89552121704	0.328892636435
1	3231	441.557840673815	0.328892636435
1	3240	442.850061400038	0.328892636435
1	3243	443.178954036473	0.515496356035
1	3246	443.507846672908	0.749485492013
1	3251	444.224235999883	0.328892636435
1	3258	444.864932928388	0.328892636435
1	3265	445.193825564823	0.358164145444
1	3268	445.522718201258	0.560662935389
1	3271	445.851610837693	0.84671632112
1	3278	448.278188686325	0.328892636435
1	3283	448.60708132276	0.5725086507
1	3288	448.935973959195	0.638154168203
1	3291	449.26486659563	0.504342207115
1	3298	450.900613322758	0.328892636435
1	3303	451.229505959193	0.56573713549
1	3306	451.558398595628	0.425483287173
1	3311	452.084109574689	0.328892636435
1	3320	452.476291037178	0.328892636435
1	3325	452.805183673613	0.530974999321
1	3329	453.417313327972	1.097122443264
1	3332	453.746205964407	0.94548504143
1	3337	454.297807216142	0.328892636435
1	3342	454.787201560098	0.328892636435
1	3349	455.370776817676	0.328892636435
1	3354	455.699669454111	0.398064121732
1	3359	456.028562090546	0.543038402148
1	3362	456.357454726981	0.35153232048
1	3369	456.785280351885	0.328892636435
1	3372	457.11417298832	0.520124932891
1	3377	458.21921695873	0.328892636435
1	3382	458.628700520419	0.328892636435
1	3387	459.140109887288	0.328892636435
1	3394	460.145815666432	0.328892636435
1	3399	460.474708302867	0.637827898364
1	3402	460.803600939302	0.55200893314
1	3407	463.032187231979	0.328892636435
1	3412	463.455349005589	0.328892636435
1	3417	463.978123234685	0.328892636435
1	3422	464.524511941434	0.328892636435
1	3427	466.135659082098	0.328892636435
1	3432	467.107555605711	0.328892636435
1	3437	468.710545682655	0.328892636435
1	3444	469.401481250638	0.328892636435
1	3449	469.730373887073	0.334850877488
1	3454	470.059266523508	0.360898414225
1	3457	470.388159159943	0.428242009886
1	3464	471.145320375949	0.328892636435
1	3467	471.474213012384	0.543115741028
1	3472	472.496493574664	0.328892636435
1	3478	473.149305176872	0.328892636435
1	3485	474.550984646528	0.328892636435
1	3490	474.879877282963	0.491857153966
1	3497	475.208769919398	0.417035063974
1	3500	475.537662555833	0.456168173769
1	3505	475.866555192268	0.715464252257
1	3510	476.195447828703	0.367937197999
1	3513	476.524340465138	0.360022563623
1	3518	477.303439186361	0.328892636435
1	3527	478.573878622168	0.328892636435
1	3530	478.902771258603	0.540836066669
1	3533	479.231663895038	0.8031974317
1	3540	481.084170764592	0.328892636435
1	3543	481.413063401027	0.391038788935
1	3550	482.759521646451	0.328892636435
1	3555	483.088414282886	0.521893283764
1	3560	483.417306919321	0.351218111741
1	3563	483.746199555756	0.448470724389
1	3570	484.446601336368	0.328892636435
1	3573	484.775493972803	0.346089417184
1	3578	485.979735539078	0.328892636435
1	3583	488.296272289298	0.328892636435
1	3588	489.637461390963	0.328892636435
1	3595	490.581078002081	0.328892636435
1	3598	490.909970638516	0.512289589589
1	3605	492.163316444632	0.328892636435
1	3610	492.492209081067	0.526140215024
1	3613	492.821101717502	0.629776178648
1	3618	493.660616875398	0.328892636435
1	3625	495.648217808408	0.328892636435
1	3635	496.260347462767	0.783414445615
1	3638	496.589240099202	0.792380934463
1	3643	496.918132735637	0.824533549635
1	3646	497.247025372072	1.134974799968
1	3653	497.575918008507	0.758135009363
1	3656	497.904810644942	0.572541463385
1	3663	498.233703281377	0.901195608003
1	3666	498.562595917812	0.462739101788
1	3669	498.891488554247	0.682870053619
1	3674	499.404197984273	0.328892636435
1	3681	500.171983810532	0.328892636435
1	3690	500.500876446967	0.542487690059
1	3693	500.829769083402	0.433207364194
1	3696	501.158661719837	0.701789248687
1	3699	501.487554356272	0.994512428679
1	3706	502.001722594561	0.328892636435
1	3709	502.330615230996	0.382263035475
1	3714	502.808367673762	0.328892636435
1	3721	504.134517497597	0.328892636435
1	3726	504.463410134032	0.453005244091
1	3729	504.792302770467	0.560184802719
1	3734	507.044266474843	0.328892636435
1	3739	508.285332536086	0.328892636435
1	3744	509.203243864832	0.328892636435
1	3751	509.620355542957	0.328892636435
1	3754	509.949248179392	0.62282108961
1	3759	510.32195862673	0.328892636435
1	3766	511.419182985374	0.328892636435
1	3771	511.748075621809	0.343935506139
1	3776	512.076968258244	0.633860642001
1	3780	512.689097912603	0.838691543185
1	3785	514.361266391482	0.328892636435
1	3790	514.802389810867	0.328892636435
1	3795	515.206176297593	0.328892636435
1	3802	517.233177437065	0.328892636435
1	3805	517.5620700735	0.537955923124
1	3810	518.061400542089	0.328892636435
1	3815	519.742660609209	0.328892636435
1	3820	520.508067742353	0.328892636435
1	3825	520.851057094874	0.328892636435
1	3832	521.333571341494	0.328892636435
1	3837	521.662463977929	0.46111650192
1	3842	521.991356614364	0.5720326079
1	3845	522.320249250799	0.423819853329
1	3850	523.365887426687	0.328892636435
1	3859	524.286634973504	0.328892636435
1	3862	524.615527609939	0.356509940759
1	3865	524.944420246374	0.661378762304
1	3870	525.34351342784	0.328892636435
1	3875	526.288076810208	0.328892636435
1	3880	527.770615412342	0.328892636435
1	3887	529.045801774165	0.328892636435
1	3890	529.3746944106	0.599164499141
1	3895	531.745647532801	0.328892636435
1	3900	532.357548647984	0.328892636435
1	3907	533.159157415077	0.328892636435
1	3912	533.488050051512	0.421000483084
1	3915	533.816942687947	0.369951755476
1	3922	534.808756960907	0.328892636435
1	3927	535.137649597342	0.339638496291
1	3935	535.749779251701	0.744884528582
1	3938	536.078671888136	0.594376661098
1	3943	536.407564524571	0.675462943717
1	3950	536.736457161006	0.435170932595
1	3953	537.065349797441	0.644694974669
1	3956	537.394242433876	0.855670136616
1	3961	537.863524780202	0.328892636435
1	3966	538.879884203459	0.328892636435
1	3975	543.56255468671	0.328892636435
1	3982	543.891447323145	0.612823066124
1	3985	544.22033995958	0.920675383243
1	3988	544.549232596015	0.857060797871
1	3991	544.87812523245	1.175362171634
1	3996	545.350412111533	0.328892636435
1	4001	546.897632023044	0.328892636435
1	4008	547.904379195213	0.328892636435
1	4011	548.233271831648	0.480978546175
1	4018	549.020442687897	0.328892636435
1	4021	549.349335324332	0.570044716314
1	4026	550.409107657831	0.328892636435
1	4031	551.894324093254	0.328892636435
1	4040	553.509788283072	0.328892636435
1	4049	553.838680919507	0.481199631785
1	4054	554.167573555942	0.694161690213
1	4057	554.496466192377	0.874082637753
1	4062	554.825358828812	0.997843972326
1	4065	555.154251465247	1.323313191097
1	4072	555.483144101682	1.352963338714
1	4077	555.812036738117	1.09717305547
1	4080	556.140929374552	0.943348814722
1	4090	556.753059028911	1.503532329947
1	4093	557.081951665346	1.281718893341
1	4096	557.410844301781	1.187430769527
1	4099	557.739736938216	1.466950203069
1	4102	558.068629574651	1.356796675311
1	4107	558.704560224151	0.328892636435
1	4112	560.657466230689	0.328892636435
1	4119	561.3867240761	0.328892636435
1	4126	561.715616712535	0.568280765755
1	4131	562.04450934897	0.361253763241
1	4134	562.373401985405	0.679484574603
1	4139	562.70229462184	0.721770220826
1	4142	563.031187258275	0.587320518627
1	4149	563.645228399626	0.328892636435
1	4152	563.974121036061	0.649876796712
1	4159	564.515086446838	0.328892636435
1	4166	564.843979083273	0.552038357679
1	4171	565.172871719708	0.636745685732
1	4174	565.501764356143	0.934359648432
1	4179	565.830656992578	0.674001700019
1	4182	566.159549629013	0.376670190889
1	4187	566.490045649141	0.328892636435
1	4192	567.646844084515	0.328892636435
1	4199	569.554643037844	0.328892636435
1	4202	569.883535674279	0.654419604408
1	4209	571.000605486011	0.328892636435
1	4212	571.329498122446	0.50233247245
1	4217	573.923990415607	0.328892636435
1	4222	576.692186061331	0.328892636435
1	4229	577.188967093062	0.328892636435
1	4233	577.801096747421	0.76990153585
1	4240	578.42147965373	0.328892636435
1	4245	578.750372290165	0.581317240561
1	4248	579.0792649266	0.584278285399
1	4253	579.881823619469	0.328892636435
1	4258	580.770315170537	0.328892636435
1	4263	581.129812605893	0.328892636435
1	4268	582.608329534543	0.328892636435
1	4273	583.474754936401	0.328892636435
1	4278	585.232933091501	0.328892636435
1	4285	585.654527945162	0.328892636435
1	4290	585.983420581597	0.360416905318
1	4293	586.312313218032	0.395058327106
1	4298	587.652997364858	0.328892636435
1	4303	588.779769833024	0.328892636435
1	4308	589.190769639225	0.328892636435
1	4315	589.869253720706	0.328892636435
1	4318	590.198146357141	0.500127801597
1	4323	591.43382845256	0.328892636435
1	4328	591.825911174763	0.328892636435
1	4333	593.563783628554	0.328892636435
1	4338	593.987863330955	0.328892636435
1	4343	595.514113789794	0.328892636435
1	4350	596.081895045735	0.328892636435
1	4353	596.41078768217	0.588070870706
1	4358	597.05002015907	0.328892636435
1	4363	597.617430340613	0.328892636435
1	4368	597.960749721488	0.328892636435
1	4373	598.548749302345	0.328892636435
1	4378	599.219841560314	0.328892636435
1	4384	600.185907620576	0.328892636435
1	4389	600.526029065193	0.328892636435
1	4394	601.982303209367	0.328892636435
1	4399	604.352895691487	0.328892636435
1	4404	605.923143334322	0.328892636435
1	4409	606.92060452678	0.328892636435
1	4414	607.334024455746	0.328892636435
1	4419	607.700617963898	0.328892636435
1	4424	609.617854854148	0.328892636435
1	4431	612.905246765768	0.328892636435
1	4438	613.234139402203	0.625765143208
1	4441	613.563032038638	0.554517966605
1	4444	613.891924675073	0.67771840423
1	4453	617.747789415486	0.328892636435
1	4458	618.076682051921	0.52195845721
1	4463	618.405574688356	0.77958524264
1	4466	618.734467324791	0.915322603605
1	4471	619.063359961226	0.801789095938
1	4474	619.392252597661	0.424967130716
1	4481	619.99779378603	0.328892636435
1	4484	620.326686422465	0.622783815522
1	4489	620.798573427197	0.328892636435
1	4494	621.197042274995	0.328892636435
1	4499	621.679025200847	0.328892636435
1	4504	623.79137217191	0.328892636435
1	4513	624.145075121482	0.328892636435
1	4518	624.473967757917	0.495351589295
1	4521	624.802860394352	0.721957017413
1	4524	625.131753030787	0.975000573454
1	4533	625.883292517552	0.328892636435
1	4541	626.495422171911	0.803304786697
1	4544	626.824314808346	1.01323739018
1	4547	627.153207444781	0.912788035078
1	4552	627.482100081216	1.123234736247
1	4555	627.810992717651	0.423761120035
1	4560	628.221932325915	0.328892636435
1	4567	629.907465137031	0.328892636435
1	4570	630.236357773466	0.440689746744
1	4577	631.432287430997	0.328892636435
1	4580	631.761180067432	0.546537840247
1	4587	632.187021080285	0.328892636435
1	4594	632.51591371672	0.604835073244
1	4599	632.844806353155	0.474998128943
1	4602	633.17369898959	0.788201338972
1	4605	633.502591626025	0.876941133583
1	4610	634.198039337996	0.328892636435
1	4615	635.119125967182	0.328892636435
1	4620	635.49263611992	0.328892636435
1	4625	637.506517893578	0.328892636435
1	4632	638.200384271548	0.328892636435
1	4635	638.529276907983	0.507163459742
1	4640	639.148926364701	0.328892636435
1	4645	639.640629333411	0.328892636435
1	4652	640.041052508466	0.328892636435
1	4657	640.369945144901	0.439289400121
1	4664	640.698837781336	0.546309842998
1	4671	641.027730417771	0.556248825145
1	4674	641.356623054206	0.779073897634
1	4679	641.685515690641	0.796924632416
1	4682	642.014408327076	1.11695319701
1	4686	642.626537981435	1.245003323152
1	4693	642.958911729891	0.328892636435
1	4696	643.287804366326	0.512875293624
1	4701	643.905844148708	0.328892636435
1	4706	644.431462933967	0.328892636435
1	4713	647.402634782253	0.328892636435
1	4718	647.731527418688	0.536102951882
1	4721	648.060420055123	0.478386950898
1	4726	648.966656614422	0.328892636435
1	4733	649.835325801993	0.328892636435
1	4738	650.164218438428	0.44613349344
1	4741	650.493111074863	0.600330120293
1	4746	651.909463446243	0.328892636435
1	4751	653.134291033153	0.328892636435
1	4756	655.568826040221	0.328892636435
1	4761	657.971814797292	0.328892636435
1	4766	659.435938221585	0.328892636435
1	4771	660.073980427087	0.328892636435
1	4776	661.014436551699	0.328892636435
1	4781	661.538398601513	0.328892636435
1	4788	661.986623517428	0.328892636435
1	4791	662.315516153863	0.459494278903
1	4798	663.872584293091	0.328892636435
1	4801	664.201476929526	0.368421356386
1	4808	664.832380376924	0.328892636435
1	4813	665.161273013359	0.453077408992
1	4816	665.490165649794	0.472607817609
1	4821	666.138924381498	0.328892636435
1	4828	667.13961397836	0.328892636435
1	4831	667.468506614795	0.47497353824
1	4839	669.517590228961	0.328892636435
1	4844	669.846482865396	0.503475806001
1	4847	670.175375501831	0.599449561682
1	4854	671.179901447598	0.328892636435
1	4857	671.508794084033	0.587520378314
1	4862	672.034412931178	0.328892636435
1	4867	675.158052249788	0.328892636435
1	4872	676.277366565393	0.328892636435
1	4879	678.700797058498	0.328892636435
1	4882	679.029689694933	0.476274416006
1	4887	680.764269204441	0.328892636435
1	4892	681.836010945453	0.328892636435
1	4897	685.345332269603	0.328892636435
1	4904	686.695234647604	0.328892636435
1	4907	687.024127284039	0.499550063932
1	4912	689.33777313065	0.328892636435
1	4917	690.493252061708	0.328892636435
1	4924	690.99694402546	0.328892636435
1	4929	691.325836661895	0.526239573704
1	4932	691.65472929833	0.43659576217
1	4937	692.868020667182	0.328892636435
1	4942	694.417584926974	0.328892636435
1	4949	695.536805547127	0.328892636435
1	4952	695.865698183562	0.591511046753
1	4957	697.414744310635	0.328892636435
1	4962	699.001121623163	0.328892636435
1	4967	699.845272146504	0.328892636435
1	4972	700.994013225223	0.328892636435
1	4977	701.891427354457	0.328892636435
1	4984	702.809516577133	0.328892636435
1	4990	703.421646231492	0.747925795442
1	4995	703.750538867927	0.559535140022
1	4998	704.079431504362	0.562579924702
1	5005	704.428979368642	0.328892636435
1	5010	704.757872005077	0.651822034935
1	5015	705.086764641512	0.367433985429
1	5018	705.415657277947	0.480532549231
1	5025	705.898887851218	0.328892636435
1	5028	706.227780487653	0.560919910068
1	5033	707.067963965004	0.328892636435
1	5038	707.98465945325	0.328892636435
1	5043	708.460800155049	0.328892636435
1	5048	709.97215797788	0.328892636435
1	5053	712.810006098343	0.328892636435
1	5058	713.868754742938	0.328892636435
1	5065	714.59812321395	0.328892636435
1	5068	714.927015850385	0.42567896532
1	5075	715.893531879728	0.328892636435
1	5082	716.222424516163	0.566885121894
1	5091	716.551317152598	0.594599252241
1	5094	716.880209789033	0.690490019676
1	5097	717.209102425468	0.919702914076
1	5100	717.537995061903	1.028462784934
1	5103	717.866887698338	1.316378142477
1	5108	718.838090508978	0.328892636435
1	5113	719.853248186543	0.328892636435
1	5118	720.528690807986	0.328892636435
1	5123	722.263670259194	0.328892636435
1	5128	722.617447458518	0.328892636435
1	5133	723.588162659013	0.328892636435
1	5139	726.637070255518	0.328892636435
1	5144	727.308258081309	0.328892636435
1	5153	727.659961487991	0.328892636435
1	5158	727.988854124426	0.561157001123
1	5161	728.317746760861	0.665001733489
1	5164	728.646639397296	0.925588916434
1	5171	729.099619669787	0.328892636435
1	5178	729.428512306222	0.425080579922
1	5181	729.757404942657	0.563777250545
1	5184	730.086297579092	0.885736434315
1	5189	731.368543482294	0.328892636435
1	5194	732.718922933462	0.328892636435
1	5201	733.912238085906	0.328892636435
1	5204	734.241130722341	0.490236582886
1	5209	735.517897652892	0.328892636435
1	5214	735.878968023578	0.328892636435
1	5219	737.016593163456	0.328892636435
1	5224	737.606785202344	0.328892636435
1	5229	738.04740653454	0.328892636435
1	5234	738.975332851381	0.328892636435
1	5241	739.85807184019	0.328892636435
1	5244	740.186964476625	0.553414356856
1	5249	741.400490240055	0.328892636435
1	5254	742.071866579996	0.328892636435
1	5263	743.352684059307	0.328892636435
1	5268	743.681576695742	0.480078866711
1	5271	744.010469332177	0.67008129602
1	5274	744.339361968612	0.898784588692
1	5279	745.699181158823	0.328892636435
1	5284	746.105183404961	0.328892636435
1	5290	749.180926692713	0.328892636435
1	5295	749.556218711659	0.328892636435
1	5300	750.771790987547	0.328892636435
1	5305	751.646274747992	0.328892636435
1	5312	754.574684699353	0.328892636435
1	5317	754.903577335788	0.487204923995
1	5320	755.232469972223	0.567244590462
1	5325	755.837015377555	0.328892636435
1	5330	756.536888174814	0.328892636435
1	5335	757.147282323033	0.328892636435
1	5344	758.455223183084	0.328892636435
1	5347	758.784115819519	0.374431197858
1	5350	759.113008455954	0.686700780672
1	5359	759.584007616267	0.328892636435
1	5364	759.912900252702	0.488678049573
1	5369	760.241792889137	0.775288591895
1	5372	760.570685525572	0.975437376677
1	5375	760.899578162007	0.722758295616
1	5382	761.390143992521	0.328892636435
1	5385	761.719036628956	0.539093331504
1	5394	763.536119524853	0.328892636435
1	5399	763.865012161288	0.640072214254
1	5402	764.193904797723	0.88290624222
1	5407	764.522797434158	0.922816764933
1	5412	764.851690070593	0.530444560447
1	5417	765.180582707028	0.550237111533
1	5420	765.509475343463	0.617628754921
1	5425	766.742141493606	0.328892636435
1	5430	767.960922634637	0.328892636435
1	5435	768.297154854023	0.328892636435
1	5443	770.248732792223	0.328892636435
1	5448	770.577625428658	0.65156166778
1	5453	770.906518065093	0.592889467719
1	5458	771.235410701528	0.634191021951
1	5465	771.564303337963	0.403876089942
1	5472	771.893195974398	0.559423475725
1	5477	772.222088610833	0.715882759667
1	5482	772.550981247268	0.912641755565
1	5485	772.879873883703	1.120541028128
1	5488	773.208766520138	1.292766711666
1	5491	773.537659156573	1.307007228569
1	5496	775.295434077155	0.328892636435
1	5501	776.51145592458	0.328892636435
1	5506	777.191352873818	0.328892636435
1	5515	777.874694193566	0.328892636435
1	5518	778.203586830001	0.61678962683
1	5523	778.532479466436	0.913826772349
1	5526	778.861372102871	0.433241658074
1	5533	780.922194822189	0.328892636435
1	5536	781.251087458624	0.596700227044
1	5541	783.158329568111	0.328892636435
1	5548	783.515571318424	0.328892636435
1	5551	783.844463954859	0.461934650022
1	5558	786.467219351639	0.328892636435
1	5561	786.796111988074	0.542651503528
1	5566	787.183505305413	0.328892636435
1	5573	788.232324240098	0.328892636435
1	5576	788.561216876533	0.58067614961
1	5581	789.460692414252	0.328892636435
1	5586	790.198141411565	0.328892636435
1	5596	791.296237691631	0.328892636435
1	5599	791.625130328066	0.474067656736
1	5602	791.954022964501	0.669324636828
[...]
8	1769	240.149654442897	0.29863250248
8	1772	240.478547079332	0.51982159621
8	1787	241.950946969869	0.059811110424
8	1792	242.279839606304	0.051419653666
8	1797	242.608732242739	0.047843823327
8	1807	243.961491618269	0.270571274229
8	1818	244.573621272628	0.317415374443
8	1820	244.902513909063	0.428288567947
8	1823	245.231406545498	0.674528819779
8	1828	245.560299181933	0.258071004937
8	1838	246.437202324522	0.178297571326
8	1845	246.766094960957	0.169689281553
8	1848	247.094987597392	0.413006797129
8	1865	253.512562266552	0.182996915673
8	1868	253.841454902987	0.385218929517
8	1873	254.170347539422	0.132435474685
8	1878	254.499240175857	0.237129593833
8	1913	261.007238578821	0.293616059689
8	1918	261.336131215256	0.225611011748
8	1923	261.665023851691	0.179454589439
8	1933	262.810541959727	0.038296284593
8	1958	266.135206931378	0.168027218886
8	1965	266.747336585737	0.499847840107
8	1974	267.799398059162	0.287186789526
8	1979	268.128290695597	0.252333404517
8	1984	268.457183332032	0.251840338921
8	1989	268.786075968467	0.036811754378
8	2004	270.474109453849	0.267724702976
8	2014	271.929057634967	0.06067610872
8	2021	272.257950271402	0.251585875455
8	2026	272.586842907837	0.554801939377
8	2029	272.915735544272	0.572993888225
8	2039	273.805894853394	0.200684600709
8	2054	275.365068339803	0.013936167608
8	2059	275.693960976238	0.112187471681
8	2064	276.022853612673	0.241772742465
8	2069	276.351746249108	0.144472509217
8	2074	276.680638885543	0.003450145566
8	2094	280.281557734268	0.107140833332
8	2101	280.610450370703	0.01470756031
8	2104	280.939343007138	0.332488261893
8	2135	284.898432475028	0.30579983321
8	2145	285.815620583016	0.084818607553
8	2165	291.478859742188	0.314664866008
8	2170	291.807752378623	0.149973724347
8	2177	292.136645015058	0.275210680896
8	2182	292.465537651493	0.376764922236
8	2185	292.794430287928	0.391358275205
8	2210	296.362461085559	0.180522968968
8	2215	296.691353721994	0.085524537964
8	2225	297.750654082336	0.090115093464
8	2235	299.122033026673	0.137309099902
8	2245	300.100447195334	0.057339098787
8	2262	302.712650799343	0.242741553285
8	2269	303.324780453702	0.682213217093
8	2271	303.653673090137	0.846145774065
8	2276	303.982565726572	0.17260388186
8	2326	314.472874688985	0.035551687614
8	2331	314.80176732542	0.266701508928
8	2336	315.130659961855	0.089887460206
8	2351	317.516987362409	0.220877533411
8	2356	317.845879998844	0.021707907465
8	2376	322.293363405757	0.227811080866
8	2381	322.622256042192	0.302428847027
8	2411	328.700620288461	0.018107017021
8	2418	329.31274994282	0.284168448081
8	2424	329.641642579255	0.049036943222
8	2429	329.97053521569	0.351442899228
8	2432	330.299427852125	0.370934379495
8	2447	332.791812717321	0.035222205668
8	2452	333.120705353756	0.071736803628
8	2459	333.449597990191	0.131850136743
8	2462	333.778490626626	0.456060604839
8	2467	334.107383263061	0.012518959072
8	2517	343.169550005951	0.079342769284
8	2537	348.8359524617	0.157387250161
8	2571	352.843171040162	0.249335887187
8	2573	353.172063676597	0.437195337352
8	2580	353.500956313032	0.092640954219
8	2583	353.829848949467	0.399054435617
8	2588	354.158741585902	0.078512789844
8	2598	354.946975225745	0.007840044783
8	2605	355.27586786218	0.323673339546
8	2614	355.604760498615	0.365382321072
8	2617	355.93365313505	0.581460508335
8	2620	356.262545771485	0.794227762924
8	2623	356.59143840792	1.023775467535
8	2633	357.458580675453	0.290901217918
8	2655	360.648251878089	0.289254091217
8	2658	360.977144514524	0.549968848989
8	2688	366.989505143148	0.249823310216
8	2734	380.073854124163	0.310983736575
8	2744	381.146024462885	0.004920390716
8	2771	386.161822502602	0.254092966821
8	2774	386.490715139037	0.363647655647
8	2791	389.555565494659	0.180590740427
8	2798	389.884458131094	0.365649635967
8	2801	390.213350767529	0.615670358134
8	2804	390.542243403964	0.739374005954
8	2809	390.871136040399	0.139964483915
8	2824	392.309596368203	0.180217851148
8	2844	396.28711712441	0.310125976885
8	2851	396.616009760845	0.133740116207
8	2854	396.94490239728	0.330117795817
8	2859	397.273795033715	0.129686608316
8	2875	399.697164773735	0.297458447423
8	2892	401.729493202182	0.303905479675
8	2899	402.058385838617	0.479119805142
8	2904	402.387278475052	0.539753332169
8	2909	402.716171111487	0.747305528968
8	2914	403.045063747922	0.679144326034
8	2919	403.373956384357	0.704899288374
8	2924	403.702849020792	0.817921519717
8	2927	404.031741657227	0.748554402353
8	2932	404.360634293662	0.916676039124
8	2935	404.689526930097	0.608479068801
8	2940	405.018419566532	0.257599351754
8	2947	405.347312202967	0.263689447854
8	2950	405.676204839402	0.567207203161
8	2955	406.005097475837	0.186837213165
8	2960	406.333990112272	0.216588513054
8	2975	408.275638982785	0.305498475758
8	2987	410.244173124026	0.276627207679
8	2992	410.573065760461	0.384093447573
8	2995	410.901958396896	0.650655366987
8	3000	411.230851033331	0.250111811747
8	3017	416.690915074276	0.116767076828
8	3022	417.303044728635	0.636639395864
8	3036	418.557772118522	0.045824003384
8	3048	419.907204682044	0.328009164396
8	3053	420.236097318479	0.456795758822
8	3056	420.564989954914	0.59085961286
8	3061	420.893882591349	0.202319447679
8	3071	421.905113194753	0.019531529829
8	3082	422.234005831188	0.281726725008
8	3085	422.562898467623	0.531360579626
8	3088	422.891791104058	0.666227388927
8	3093	423.220683740493	0.992068105335
8	3096	423.549576376928	0.449730169138
8	3101	423.878469013363	0.087727859492
8	3138	429.13617632857	0.186895106209
8	3143	429.465068965005	0.511414326872
8	3146	429.79396160144	0.467329914846
8	3156	430.578463934617	0.104372548381
8	3161	430.907356571052	0.035526497736
8	3177	432.990070313345	0.231036644548
8	3182	433.31896294978	0.198100407474
8	3194	434.764606876065	0.245068979412
8	3199	435.0934995125	0.544008749964
8	3202	435.422392148935	0.57501989093
8	3239	442.850061400038	0.1866037196
8	3242	443.178954036473	0.420592855578
8	3257	444.864932928388	0.029271509009
8	3264	445.193825564823	0.231770298954
8	3267	445.522718201258	0.517823684685
8	3277	448.278188686325	0.243616014265
8	3282	448.60708132276	0.309261531768
8	3287	448.935973959195	0.17544957068
8	3297	450.900613322758	0.236844499055
8	3302	451.229505959193	0.096590650738
8	3319	452.476291037178	0.202082362886
8	3326	453.088420691537	0.768229806829
8	3328	453.417313327972	0.616592404995
8	3348	455.370776817676	0.069171485297
8	3353	455.699669454111	0.214145765713
8	3358	456.028562090546	0.022639684045
8	3368	456.785280351885	0.191232296456
8	3393	460.145815666432	0.308935261929
8	3398	460.474708302867	0.223116296705
8	3443	469.401481250638	0.005958241053
8	3448	469.730373887073	0.03200577779
8	3453	470.059266523508	0.099349373451
8	3463	471.145320375949	0.214223104593
8	3484	474.550984646528	0.162964517531
8	3489	474.879877282963	0.088142427539
8	3496	475.208769919398	0.127275537334
8	3499	475.537662555833	0.386571615822
8	3504	475.866555192268	0.039044561564
8	3509	476.195447828703	0.031129927188
8	3526	478.573878622168	0.211943430234
8	3529	478.902771258603	0.474304795265
8	3539	481.084170764592	0.0621461525
8	3549	482.759521646451	0.193000647329
8	3554	483.088414282886	0.022325475306
8	3559	483.417306919321	0.119578087954
8	3569	484.446601336368	0.017196780749
8	3594	490.581078002081	0.183396953154
8	3604	492.163316444632	0.197247578589
8	3609	492.492209081067	0.300883542213
8	3628	495.931454826332	0.45452180918
8	3634	496.260347462767	0.463488298028
8	3637	496.589240099202	0.4956409132
8	3642	496.918132735637	0.806082163533
8	3645	497.247025372072	0.429242372928
8	3652	497.575918008507	0.24364882695
8	3655	497.904810644942	0.572302971568
8	3662	498.233703281377	0.133846465353
8	3665	498.562595917812	0.353977417184
8	3680	500.171983810532	0.213595053624
8	3689	500.500876446967	0.104314727759
8	3692	500.829769083402	0.372896612252
8	3695	501.158661719837	0.665619792244
8	3705	502.001722594561	0.05337039904
8	3720	504.134517497597	0.124112607656
8	3725	504.463410134032	0.231292166284
8	3750	509.620355542957	0.293928453175
8	3765	511.419182985374	0.015042869704
8	3770	511.748075621809	0.304968005566
8	3777	512.360205276168	0.50979890675
8	3801	517.233177437065	0.209063286689
8	3831	521.333571341494	0.132223865485
8	3836	521.662463977929	0.243139971465
8	3841	521.991356614364	0.094927216894
8	3858	524.286634973504	0.027617304324
8	3861	524.615527609939	0.332486125869
8	3886	529.045801774165	0.270271862706
8	3906	533.159157415077	0.092107846649
8	3911	533.488050051512	0.041059119041
8	3921	534.808756960907	0.010745859856
8	3928	535.420886615266	0.415991892147
8	3934	535.749779251701	0.265484024663
8	3937	536.078671888136	0.346570307282
8	3942	536.407564524571	0.10627829616
8	3949	536.736457161006	0.315802338234
8	3952	537.065349797441	0.526777500181
8	3974	543.56255468671	0.283930429689
8	3981	543.891447323145	0.591782746808
8	3984	544.22033995958	0.528168161436
8	3987	544.549232596015	0.846469535199
8	4007	547.904379195213	0.15208590974
8	4017	549.020442687897	0.241152079879
8	4039	553.509788283072	0.15230699535
8	4048	553.838680919507	0.365269053778
8	4053	554.167573555942	0.545190001318
8	4056	554.496466192377	0.668951335891
8	4061	554.825358828812	0.994420554662
8	4064	555.154251465247	1.024070702279
8	4071	555.483144101682	0.768280419035
8	4076	555.812036738117	0.614456178287
8	4085	556.424166392476	1.174639693512
8	4089	556.753059028911	0.952826256906
8	4092	557.081951665346	0.858538133092
8	4095	557.410844301781	1.138057566634
8	4098	557.739736938216	1.027904038876
8	4118	561.3867240761	0.23938812932
8	4125	561.715616712535	0.032361126806
8	4130	562.04450934897	0.350591938168
8	4133	562.373401985405	0.392877584391
8	4138	562.70229462184	0.258427882192
8	4148	563.645228399626	0.320984160277
8	4158	564.515086446838	0.223145721244
8	4165	564.843979083273	0.307853049297
8	4170	565.172871719708	0.605467011997
8	4173	565.501764356143	0.345109063584
8	4178	565.830656992578	0.047777554454
8	4198	569.554643037844	0.325526967973
8	4208	571.000605486011	0.173439836015
8	4230	577.472204110986	0.441008899415
8	4239	578.42147965373	0.252424604126
8	4244	578.750372290165	0.255385648964
8	4284	585.654527945162	0.031524268883
8	4289	585.983420581597	0.066165690671
8	4314	589.869253720706	0.171235165162
8	4349	596.081895045735	0.259178234271
8	4430	612.905246765768	0.296872506773
8	4437	613.234139402203	0.22562533017
8	4440	613.563032038638	0.348825767795
8	4452	617.747789415486	0.193065820775
8	4457	618.076682051921	0.450692606205
8	4462	618.405574688356	0.58642996717
8	4465	618.734467324791	0.472896459503
8	4470	619.063359961226	0.096074494281
8	4480	619.99779378603	0.293891179087
8	4512	624.145075121482	0.16645895286
8	4517	624.473967757917	0.393064380978
8	4520	624.802860394352	0.646107937019
8	4534	626.166529535476	0.474412150262
8	4540	626.495422171911	0.684344753745
8	4543	626.824314808346	0.583895398643
8	4546	627.153207444781	0.794342099812
8	4551	627.482100081216	0.0948684836
8	4566	629.907465137031	0.111797110309
8	4576	631.432287430997	0.217645203812
8	4586	632.187021080285	0.275942436809
8	4593	632.51591371672	0.146105492508
8	4598	632.844806353155	0.459308702537
8	4601	633.17369898959	0.548048497148
8	4631	638.200384271548	0.178270823307
8	4651	640.041052508466	0.110396763686
8	4656	640.369945144901	0.217417206563
8	4663	640.698837781336	0.22735618871
8	4670	641.027730417771	0.450181261199
8	4673	641.356623054206	0.468031995981
8	4678	641.685515690641	0.788060560575
8	4683	642.297645345	0.916110686717
8	4692	642.958911729891	0.183982657189
8	4712	647.402634782253	0.207210315447
8	4717	647.731527418688	0.149494314463
8	4732	649.835325801993	0.117240857005
8	4737	650.164218438428	0.271437483858
8	4787	661.986623517428	0.130601642468
8	4797	663.872584293091	0.039528719951
8	4807	664.832380376924	0.124184772557
8	4812	665.161273013359	0.143715181174
8	4827	667.13961397836	0.146080901805
8	4838	669.517590228961	0.174583169566
8	4843	669.846482865396	0.270556925247
8	4853	671.179901447598	0.258627741879
8	4878	678.700797058498	0.147381779571
8	4903	686.695234647604	0.170657427497
8	4923	690.99694402546	0.197346937269
8	4928	691.325836661895	0.107703125735
8	4948	695.536805547127	0.262618410318
8	4985	703.092753595057	0.419033159007
8	4989	703.421646231492	0.230642503587
8	4994	703.750538867927	0.233687288267
8	5004	704.428979368642	0.3229293985
8	5009	704.757872005077	0.038541348994
8	5014	705.086764641512	0.151639912796
8	5024	705.898887851218	0.232027273633
8	5064	714.59812321395	0.096786328885
8	5074	715.893531879728	0.237992485459
8	5081	716.222424516163	0.265706615806
8	5090	716.551317152598	0.361597383241
8	5093	716.880209789033	0.590810277641
8	5096	717.209102425468	0.699570148499
8	5099	717.537995061903	0.987485506042
8	5152	727.659961487991	0.232264364688
8	5157	727.988854124426	0.336109097054
8	5160	728.317746760861	0.596696279999
8	5170	729.099619669787	0.096187943487
8	5177	729.428512306222	0.23488461411
8	5180	729.757404942657	0.55684379788
8	5200	733.912238085906	0.161343946451
8	5240	739.85807184019	0.224521720421
8	5262	743.352684059307	0.151186230276
8	5267	743.681576695742	0.341188659585
8	5270	744.010469332177	0.569891952257
8	5311	754.574684699353	0.15831228756
8	5316	754.903577335788	0.238351954027
8	5343	758.455223183084	0.045538561423
8	5346	758.784115819519	0.357808144237
8	5358	759.584007616267	0.159785413138
8	5363	759.912900252702	0.44639595546
8	5368	760.241792889137	0.646544740242
8	5371	760.570685525572	0.393865659181
8	5381	761.390143992521	0.210200695069
8	5393	763.536119524853	0.311179577819
8	5398	763.865012161288	0.554013605785
8	5401	764.193904797723	0.593924128498
8	5406	764.522797434158	0.201551924012
8	5411	764.851690070593	0.221344475098
8	5416	765.180582707028	0.288736118486
8	5442	770.248732792223	0.322669031345
8	5447	770.577625428658	0.263996831284
8	5452	770.906518065093	0.305298385516
8	5457	771.235410701528	0.074983453507
8	5464	771.564303337963	0.23053083929
8	5471	771.893195974398	0.386990123232
8	5476	772.222088610833	0.58374911913
8	5481	772.550981247268	0.791648391693
8	5484	772.879873883703	0.963874075231
8	5487	773.208766520138	0.978114592134
8	5514	777.874694193566	0.287896990395
8	5517	778.203586830001	0.584934135914
8	5522	778.532479466436	0.104349021639
8	5532	780.922194822189	0.267807590609
8	5547	783.515571318424	0.133042013587
8	5557	786.467219351639	0.213758867093
8	5572	788.232324240098	0.251783513175
8	5595	791.296237691631	0.145175020301
8	5598	791.625130328066	0.340432000393
8	5608	792.717050992195	0.011237215187
8	5628	795.393609931378	0.045939200135
8	5638	797.015562528429	0.140837267073
8	5673	802.340589934473	0.063402747687
8	5688	805.565247274548	0.281783518957
8	5698	807.164515117728	0.135441018379
8	5728	812.374148352231	0.23744001276
8	5735	812.703040988666	0.217763501456
8	5740	813.315170643025	0.784378073074
8	5744	813.64406327946	0.239990146746
8	5754	814.391980505924	0.096935659627
8	5769	816.436953985981	0.024671231173
8	5779	817.21230230991	0.093019515491
8	5784	817.541194946345	0.255248566056
8	5789	817.87008758278	0.097289643886
8	5796	818.198980219215	0.232186499721
8	5799	818.52787285565	0.423522531411
8	5809	819.906635165175	0.022367164937
8	5834	824.203281795568	0.140448007489
8	5905	836.642387808751	0.225377090471
8	5937	841.584434651727	0.058895445335
8	5940	841.913327288162	0.352885742501
8	5960	846.867469161983	0.09355187982
8	5965	847.196361798418	0.206504929344
8	5997	857.023713382231	0.285841934864
8	6000	857.352606018666	0.441126021815
8	6042	864.480684197653	0.248566863699
8	6046	864.809576834088	0.155238386064
8	6056	865.71215530964	0.073560928746
8	6061	866.041047946075	0.221261485965
8	6066	866.36994058251	0.054335373698
8	6078	867.362539680577	0.323464106302
8	6081	867.691432317012	0.556483619336
8	6096	871.330197227125	0.004486456672
8	6101	871.65908986356	0.2810975688
8	6121	874.141484284616	0.04124713586
8	6126	874.470376921051	0.283768906639
8	6151	879.097443457949	0.245847466731
8	6156	879.426336094384	0.045130214391
8	6161	879.755228730819	0.248774869066
8	6166	880.084121367254	0.04566121014
8	6176	880.859482118196	0.316362944648
8	6197	882.92292949165	0.527456151114
8	6199	883.251822128085	0.795991047161
8	6202	883.58071476452	0.997779846474
8	6207	883.909607400955	0.237189271561
8	6229	886.236585185543	0.291186405703
8	6232	886.565477821978	0.362414986842
8	6237	886.894370458413	0.016459696197
8	6272	892.541845219103	0.283057612396
8	6302	896.863927293607	0.195476659975
8	6307	897.192819930042	0.115022988419
8	6322	900.162559656378	0.181298512929
8	6337	902.485377189741	0.315966906185
8	6344	903.0975068441	0.269268811855
8	6355	903.912882207874	0.115197139861
8	6360	904.241774844309	0.345511566388
8	6363	904.570667480744	0.430346461659
8	6380	906.866346645374	0.202330351138
8	6383	907.195239281809	0.522268629106
8	6388	907.524131918244	0.139147436743
8	6393	907.853024554679	0.044414957692
8	6403	910.818888721423	0.251457309649
8	6422	915.668227763405	0.274536830904
8	6425	915.99712039984	0.470074877124
8	6428	916.326013036275	0.725099791394
8	6448	919.277657940032	0.186629936168
8	6453	919.606550576467	0.000618670684
8	6463	920.337084038256	0.291844943585
8	6483	921.990211778369	0.038443112401
8	6488	922.319104414804	0.06243467348
8	6504	924.048750216492	0.129061424451
8	6511	924.377642852927	0.132646754671
8	6514	924.706535489362	0.427247586357
8	6548	932.180969625535	0.167588017821
8	6551	932.50986226197	0.40870993368
8	6554	932.838754898405	0.723448306926
8	6566	934.393660346474	0.266306112959
8	6573	934.722552982909	0.354195428488
8	6578	935.051445619344	0.591225632646
8	6581	935.380338255779	0.835712071287
8	6584	935.709230892214	0.849102572522
8	6593	936.038123528649	0.178927056156
8	6596	936.367016165084	0.478875151307
8	6599	936.695908801519	0.782606808021
8	6609	937.679355100415	0.0873405941
8	6619	938.343402754125	0.256934110282
8	6631	939.221617497772	0.240075850103
8	6636	939.550510134207	0.363387518887
8	6641	939.879402770642	0.41181080509
8	6648	940.491532425001	0.727306329632
8	6654	940.820425061436	0.49941357835
8	6661	941.149317697871	0.522565964931
8	6666	941.478210334306	0.773066196052
8	6669	941.807102970741	0.926192997387
8	6672	942.135995607176	1.079509697027
8	6677	942.464888243611	1.280695766506
8	6682	942.793780880046	0.648584866972
8	6685	943.122673516481	0.47574015534
8	6692	943.451566152916	0.215925847899
8	6695	943.780458789351	0.534159786434
8	6715	946.101488350629	0.287848152465
8	6760	953.673050852453	0.119935054581
8	6767	954.001943488888	0.191608238984
8	6770	954.330836125323	0.380771479304
8	6780	955.09218555666	0.239382670457
8	6801	958.054728552107	0.201554141135
8	6836	964.510204982789	0.041665568453
8	6841	964.839097619224	0.15005173118
8	6853	965.931381272487	0.250115662613
8	6856	966.260273908922	0.330784740843
8	6861	966.589166545357	0.189171934963
8	6866	966.918059181792	0.239616243914
8	6875	967.246951818227	0.293594431714
8	6880	967.575844454662	0.617759792598
8	6883	967.904737091097	0.731910399451
8	6886	968.233629727532	0.766302160636
8	6898	968.955944563753	0.173111274051
8	6903	969.284837200188	0.374585610577
8	6908	969.613729836623	0.521195873583
8	6913	969.942622473058	0.569359797467
8	6916	970.271515109493	0.641260955432
8	6923	970.600407745928	0.199639308102
8	6928	970.929300382363	0.379226404694
8	6933	971.258193018798	0.569668220432
8	6938	971.587085655233	0.340988073576
8	6945	971.915978291668	0.422265462279
8	6952	972.528107946027	0.822928016965
8	6954	972.857000582462	1.142151307985
8	6957	973.185893218897	0.770765257338
8	6967	976.303803261923	0.32352177152
8	6972	976.632695898358	0.173748484999
8	6977	976.961588534793	0.068274184014
8	6992	979.181382060179	0.067138740888
8	7047	993.270389388856	0.318640021437
8	7054	993.599282025291	0.202905836125
8	7059	993.928174661726	0.45074829421
8	7062	994.257067298161	0.556335202409
8	7069	994.585959934596	0.242936149085
8	7072	994.914852571031	0.567861670019
8	7099	998.947283922041	0.360023033294
8	7103	999.276176558476	0.32708278621
8	7108	999.605069194911	0.059556257028

