version 2
run General-125-20240201-11:04:19-40057
attr configname General
attr datetime 20240201-11:04:19
attr experiment General
attr inifile main.ini
attr iterationvars "$0=1.4, $1=1.7, $2=30"
attr iterationvarsf 1.4,1.7,30-
attr measurement "$0=1.4, $1=1.7, $2=30"
attr network Rete
attr processid 40057
attr repetition 5
attr replication #5
attr resultdir results
attr runnumber 125
attr seedset 125
param Rete.lambda 1.4
param Rete.a 0.3s
param Rete.b 1.7s
param Rete.c 0.1s
param Rete.d 0.3s
param Rete.mu 3.0
param Rete.source2.interArrivalTime exponential(1s/lambda)
param Rete.source2.jobServiceTime exponential(1s/mu)
param Rete.source2.deadline uniform(a,b)
param Rete.server2.j 30
param Rete.server2.V uniform(c,d)

vector 0 Rete.passiveQueue queueLength:vector ETV
attr interpolationmode sample-hold
attr title "queue length, vector"
vector 1 Rete.sink lifeTime:vector ETV
attr interpolationmode none
attr title "lifetime of arrived jobs, vector"
attr unit s
vector 2 Rete.sink totalQueueingTime:vector ETV
attr interpolationmode none
attr title "the total time spent in queues by arrived jobs, vector"
attr unit s
vector 3 Rete.sink queuesVisited:vector ETV
attr interpolationmode none
attr title "the total number of queues visited by arrived jobs, vector"
vector 4 Rete.sink totalServiceTime:vector ETV
attr interpolationmode none
attr title "the total time spent  by arrived jobs, vector"
attr unit s
vector 5 Rete.sink totalDelayTime:vector ETV
attr interpolationmode none
attr title "the total time spent in delay nodes by arrived jobs, vector"
attr unit s
vector 6 Rete.sink delaysVisited:vector ETV
attr interpolationmode none
attr title "the total number of delays visited by arrived jobs, vector"
vector 7 Rete.sink generation:vector ETV
attr interpolationmode none
attr title "the generation of the arrived jobs, vector"
vector 8 Rete.passiveQueue queueingTime:vector ETV
attr interpolationmode none
attr title "queueing time at dequeue, vector"
attr unit s
0	0	0	0
0	40	6.314192582498	1
0	41	6.317206187528	0
0	60	7.899028724576	1
0	61	7.909189999236	0
0	152	16.22736225221	1
0	153	16.306593333755	0
0	296	36.855532325009	1
0	297	36.868770327336	0
0	327	41.469266554575	1
0	328	41.487351254619	0
0	402	55.368642740182	1
0	403	55.386357224476	0
0	463	63.973985981098	1
0	464	63.990628108023	0
0	1102	157.972237215579	1
0	1103	157.991784305477	0
0	1243	175.122433894866	1
0	1244	175.13053880541	0
0	1364	198.352240136139	1
0	1365	198.360170170298	0
0	1662	238.250095400195	1
0	1664	238.298744670672	2
0	1665	238.384487573495	1
0	1667	238.404238215813	0
0	1736	243.443514570991	1
0	1737	243.460391476736	0
0	1907	268.270560800388	1
0	1908	268.283872696842	0
0	2249	325.347625490035	1
0	2250	325.366898905306	0
0	2415	343.927526175774	1
0	2418	344.074566087726	0
0	2798	406.18649506402	1
0	2799	406.202013278266	0
0	3135	462.191482361443	1
0	3136	462.19312010275	0
0	3276	483.98085548977	1
0	3277	483.987642104568	0
0	3281	484.003370665957	1
0	3282	484.007392746886	0
0	3474	513.711977175303	1
0	3475	513.758408570472	0
0	3625	538.052402876256	1
0	3626	538.174605156779	0
0	3634	538.421601829919	1
0	3635	538.439416243879	0
0	3679	541.913421181522	1
0	3680	541.925039425973	0
0	4071	597.434601999236	1
0	4072	597.449321389958	0
0	4132	604.406102457931	1
0	4133	604.416597636521	0
0	4389	639.202653491989	1
0	4390	639.212671073757	0
0	4424	641.844508292822	1
0	4425	641.853335108854	0
0	4605	666.593163075107	1
0	4606	666.606931260098	0
0	4701	681.650041105864	1
0	4702	681.663173527045	0
0	4957	713.306191841235	1
0	4958	713.311806027004	0
0	4984	715.453304993918	1
0	4985	715.538234382157	0
0	4993	716.455811511497	1
0	4994	716.47434760317	0
0	5556	796.872742226603	1
0	5557	796.879633600757	0
0	6115	887.610170186353	1
0	6116	887.623803235542	0
0	6160	895.385259155653	1
0	6161	895.397386968968	0
0	6175	896.250302797066	1
0	6176	896.267877980491	0
0	6185	900.74329397848	1
0	6186	900.753552305608	0
0	6236	905.779462940708	1
0	6237	905.795071041269	0
0	6392	929.632006953606	1
0	6393	929.645186164539	0
0	6472	940.121921275718	1
0	6473	940.13914186565	0
0	6645	964.548620586829	1
0	6646	964.664669463114	0
0	6729	978.589720698635	1
0	6730	978.600608316294	0
1	5	0.524529571293	0.019750642318
1	10	1.230053138385	0.019750642318
1	15	2.500587010453	0.019750642318
1	20	2.602158669369	0.019750642318
1	25	2.632407101585	0.019750642318
1	30	2.732771488703	0.019750642318
1	35	5.207393056454	0.019750642318
1	42	6.317206187528	0.019750642318
1	45	6.336956829846	0.022764247348
1	50	6.83866437223	0.019750642318
1	55	7.528879842805	0.019750642318
1	62	7.909189999236	0.019750642318
1	65	7.928940641554	0.029911916978
1	70	8.535044073989	0.019750642318
1	75	8.583848422852	0.019750642318
1	80	9.06225654254	0.019750642318
1	85	9.158922425433	0.019750642318
1	90	9.451364387065	0.019750642318
1	95	9.613609613392	0.019750642318
1	100	9.722018537067	0.019750642318
1	105	9.932482123308	0.019750642318
1	110	11.518535749268	0.019750642318
1	115	12.070504424502	0.019750642318
1	120	12.13497996321	0.019750642318
1	125	12.160133593058	0.019750642318
1	130	13.503469904364	0.019750642318
1	135	13.774282646839	0.019750642318
1	140	14.313000564055	0.019750642318
1	145	15.596672319485	0.019750642318
1	150	16.167449016368	0.019750642318
1	156	16.326343976073	0.098981723863
1	161	17.594907808223	0.019750642318
1	166	17.860747572277	0.019750642318
1	171	17.984434029519	0.019750642318
1	176	18.523405321135	0.019750642318
1	181	18.776131310284	0.019750642318
1	186	19.302080468127	0.019750642318
1	191	20.518290781565	0.019750642318
1	196	21.374589061763	0.019750642318
1	201	24.097495096575	0.019750642318
1	206	25.536317377506	0.019750642318
1	211	27.468499090351	0.019750642318
1	216	29.274808739123	0.019750642318
1	221	29.540283147464	0.019750642318
1	226	31.345109719566	0.019750642318
1	231	31.814030087487	0.019750642318
1	236	31.864344580492	0.019750642318
1	241	32.2090137095	0.019750642318
1	246	32.326691202474	0.019750642318
1	251	33.807729187743	0.019750642318
1	256	34.099062365238	0.019750642318
1	261	34.421761129683	0.019750642318
1	266	34.675318858694	0.019750642318
1	271	35.022398889665	0.019750642318
1	276	35.240061398033	0.019750642318
1	281	35.265624265157	0.019750642318
1	286	35.717168900332	0.019750642318
1	291	36.436368895516	0.019750642318
1	298	36.868770327336	0.019750642318
1	301	36.888520969654	0.032988644645
1	307	38.436167262308	0.019750642318
1	312	38.592963184286	0.019750642318
1	317	39.282782397385	0.019750642318
1	322	40.802166866402	0.019750642318
1	329	41.487351254619	0.019750642318
1	332	41.507101896937	0.037835342362
1	337	41.57159119201	0.019750642318
1	342	41.654429269999	0.019750642318
1	347	42.57988616126	0.019750642318
1	352	43.276878296718	0.019750642318
1	357	43.366315023572	0.019750642318
1	362	48.49342338556	0.019750642318
1	367	50.794130186744	0.019750642318
1	372	51.39224906983	0.019750642318
1	377	53.456286209596	0.019750642318
1	382	53.934364627853	0.019750642318
1	387	54.189726678482	0.019750642318
1	392	54.268848383091	0.019750642318
1	397	54.853987502472	0.019750642318
1	404	55.386357224476	0.019750642318
1	407	55.406107866794	0.037465126612
1	412	55.627084007891	0.019750642318
1	417	55.74332870516	0.019750642318
1	422	56.510664252265	0.019750642318
1	427	57.072580273172	0.019750642318
1	432	60.328686890026	0.019750642318
1	437	60.394395433672	0.019750642318
1	442	61.132631888431	0.019750642318
1	447	61.221439670881	0.019750642318
1	452	61.479379081756	0.019750642318
1	458	63.881737604095	0.019750642318
1	465	63.990628108023	0.019750642318
1	468	64.010378750341	0.036392769243
1	473	64.472040138503	0.019750642318
1	478	65.560308355021	0.019750642318
1	483	65.691181978623	0.019750642318
1	488	65.715987202248	0.019750642318
1	493	65.947767762754	0.019750642318
1	498	66.122812691857	0.019750642318
1	503	66.196470642661	0.019750642318
1	508	66.459331392819	0.019750642318
1	513	68.363049155569	0.019750642318
1	518	68.630590651585	0.019750642318
1	523	69.107192321359	0.019750642318
1	528	69.93285703127	0.019750642318
1	533	70.843876660352	0.019750642318
1	538	71.416938257815	0.019750642318
1	543	71.569460637956	0.019750642318
1	548	71.723255291324	0.019750642318
1	553	71.891657559296	0.019750642318
1	558	71.968905663812	0.019750642318
1	563	72.169266893638	0.019750642318
1	568	72.234706875594	0.019750642318
1	573	72.372288363533	0.019750642318
1	578	72.814095330778	0.019750642318
1	583	73.140873696427	0.019750642318
1	588	73.328929402288	0.019750642318
1	593	76.18915458052	0.019750642318
1	598	77.280684504703	0.019750642318
1	603	77.521172084481	0.019750642318
1	609	77.888479346996	0.019750642318
1	614	80.668281014182	0.019750642318
1	619	81.173156731817	0.019750642318
1	624	83.016638467632	0.019750642318
1	629	83.519019933842	0.019750642318
1	634	84.231263242737	0.019750642318
1	639	84.880949939475	0.019750642318
1	644	84.971641037105	0.019750642318
1	649	85.82931438074	0.019750642318
1	654	87.212776518101	0.019750642318
1	659	88.474389181677	0.019750642318
1	664	89.564477250684	0.019750642318
1	669	89.71886752567	0.019750642318
1	674	90.92766665825	0.019750642318
1	679	93.380855111706	0.019750642318
1	684	93.993094710737	0.019750642318
1	689	94.508579601708	0.019750642318
1	694	94.53595317576	0.019750642318
1	699	95.468139410185	0.019750642318
1	704	96.01183677738	0.019750642318
1	709	97.061858246577	0.019750642318
1	714	97.365808241749	0.019750642318
1	719	99.155208778728	0.019750642318
1	724	99.440497486682	0.019750642318
1	729	99.992238727699	0.019750642318
1	734	100.658969047081	0.019750642318
1	739	102.453414444513	0.019750642318
1	744	103.70220688003	0.019750642318
1	749	103.784893366206	0.019750642318
1	754	104.012648810952	0.019750642318
1	760	104.18817048505	0.019750642318
1	765	104.688063547156	0.019750642318
1	770	104.750659555103	0.019750642318
1	775	106.010351475242	0.019750642318
1	780	106.732278435516	0.019750642318
1	785	107.133530751137	0.019750642318
1	790	107.371029488122	0.019750642318
1	795	107.854325808382	0.019750642318
1	800	108.672333134177	0.019750642318
1	805	109.66981153789	0.019750642318
1	810	110.298544836115	0.019750642318
1	815	111.383221192131	0.019750642318
1	820	111.535720030117	0.019750642318
1	825	112.066182536391	0.019750642318
1	830	112.110181914205	0.019750642318
1	835	112.83048761884	0.019750642318
1	840	113.477891056798	0.019750642318
1	845	113.716444523596	0.019750642318
1	850	116.796167629856	0.019750642318
1	855	118.026382333813	0.019750642318
1	860	120.804855438962	0.019750642318
1	865	122.285856768958	0.019750642318
1	870	122.662474099673	0.019750642318
1	875	123.094990718339	0.019750642318
1	880	124.386318698441	0.019750642318
1	885	125.082374929932	0.019750642318
1	890	125.261296628165	0.019750642318
1	895	125.483825461796	0.019750642318
1	900	125.516902272693	0.019750642318
1	905	126.442826006017	0.019750642318
1	911	127.051679139181	0.019750642318
1	916	127.392148190496	0.019750642318
1	921	127.812779517405	0.019750642318
1	926	128.115640819215	0.019750642318
1	931	128.626197479628	0.019750642318
1	936	129.473468257032	0.019750642318
1	941	130.108975351118	0.019750642318
1	946	130.738520306438	0.019750642318
1	951	131.234202320958	0.019750642318
1	956	132.56222892838	0.019750642318
1	961	138.43428040115	0.019750642318
1	966	139.209227144959	0.019750642318
1	971	139.562449985395	0.019750642318
1	976	140.200421308426	0.019750642318
1	981	140.608098409632	0.019750642318
1	986	141.285233016638	0.019750642318
1	991	141.361445230031	0.019750642318
1	996	141.5752462858	0.019750642318
1	1001	142.254691642083	0.019750642318
1	1006	142.635903133418	0.019750642318
1	1011	142.973847098915	0.019750642318
1	1016	144.114159117592	0.019750642318
1	1021	145.882661177434	0.019750642318
1	1026	146.286458092175	0.019750642318
1	1031	146.348428728963	0.019750642318
1	1036	146.373486428249	0.019750642318
1	1041	147.955266320608	0.019750642318
1	1046	148.577114150596	0.019750642318
1	1051	149.462787470957	0.019750642318
1	1056	149.699530500828	0.019750642318
1	1062	150.597405441798	0.019750642318
1	1067	151.985256690229	0.019750642318
1	1072	152.88426256696	0.019750642318
1	1077	153.194244957742	0.019750642318
1	1082	153.427999714879	0.019750642318
1	1087	154.5831267061	0.019750642318
1	1092	155.755562842808	0.019750642318
1	1097	157.174094583815	0.019750642318
1	1104	157.991784305477	0.019750642318
1	1107	158.011534947795	0.039297732216
1	1112	158.37909561528	0.019750642318
1	1117	159.507368252263	0.019750642318
1	1122	161.161581166445	0.019750642318
1	1127	161.413584635239	0.019750642318
1	1132	162.613945429474	0.019750642318
1	1137	163.02939447525	0.019750642318
1	1142	163.778783408605	0.019750642318
1	1147	164.028097543927	0.019750642318
1	1152	164.076498964266	0.019750642318
1	1157	165.390776761174	0.019750642318
1	1162	165.989322217064	0.019750642318
1	1167	167.1564144543	0.019750642318
1	1172	167.594646260507	0.019750642318
1	1177	167.861092233133	0.019750642318
1	1182	169.677207323523	0.019750642318
1	1187	169.811241994331	0.019750642318
1	1192	169.835869963984	0.019750642318
1	1197	169.999885755808	0.019750642318
1	1202	170.622767785344	0.019750642318
1	1207	171.647310842209	0.019750642318
1	1213	171.901778195693	0.019750642318
1	1218	173.278563367373	0.019750642318
1	1223	173.596161565743	0.019750642318
1	1228	174.421297498097	0.019750642318
1	1233	174.685383006197	0.019750642318
1	1238	174.758599307014	0.019750642318
1	1245	175.13053880541	0.019750642318
1	1248	175.150289447728	0.027855552862
1	1253	176.076964355288	0.019750642318
1	1258	177.798888028861	0.019750642318
1	1263	180.07927846611	0.019750642318
1	1268	181.249325688211	0.019750642318
1	1273	181.670758836478	0.019750642318
1	1278	182.240812559145	0.019750642318
1	1283	183.206657287883	0.019750642318
1	1288	185.25749205526	0.019750642318
1	1293	186.446640644895	0.019750642318
1	1298	186.686521374884	0.019750642318
1	1303	186.874588927309	0.019750642318
1	1308	186.989238260454	0.019750642318
1	1313	188.288165498091	0.019750642318
1	1318	189.483738711485	0.019750642318
1	1323	190.541041396518	0.019750642318
1	1328	190.567376528212	0.019750642318
1	1333	191.455704943959	0.019750642318
1	1338	191.80123425308	0.019750642318
1	1343	192.518481085297	0.019750642318
1	1348	192.970107673648	0.019750642318
1	1353	195.822840626028	0.019750642318
1	1358	198.136320888648	0.019750642318
1	1366	198.360170170298	0.019750642318
1	1369	198.379920812616	0.027680676477
1	1374	199.380321365814	0.019750642318
1	1379	199.844424423312	0.019750642318
1	1384	200.722309265768	0.019750642318
1	1389	200.746400041921	0.019750642318
1	1394	201.133210435206	0.019750642318
1	1399	201.626069598354	0.019750642318
1	1404	202.396810757028	0.019750642318
1	1409	202.998028335837	0.019750642318
1	1414	203.778609893159	0.019750642318
1	1419	203.834315516748	0.019750642318
1	1424	204.435261045949	0.019750642318
1	1429	205.777950391433	0.019750642318
1	1434	206.907499185329	0.019750642318
1	1439	208.865361570385	0.019750642318
1	1444	209.597874854954	0.019750642318
1	1449	209.617960543128	0.019750642318
1	1454	212.658584319934	0.019750642318
1	1459	214.07284693766	0.019750642318
1	1464	214.428296422825	0.019750642318
1	1469	215.717403930823	0.019750642318
1	1474	215.945281737068	0.019750642318
1	1479	216.474125435934	0.019750642318
1	1484	216.707143981082	0.019750642318
1	1489	216.736673938662	0.019750642318
1	1494	216.985770242648	0.019750642318
1	1499	217.141208291951	0.019750642318
1	1504	218.295583015574	0.019750642318
1	1509	218.45908828663	0.019750642318
1	1515	220.158330502648	0.019750642318
1	1520	221.494247354294	0.019750642318
1	1525	221.84468492324	0.019750642318
1	1530	224.121313605573	0.019750642318
1	1535	224.387320389713	0.019750642318
1	1540	224.861098073792	0.019750642318
1	1545	225.201502886995	0.019750642318
1	1550	225.23358396677	0.019750642318
1	1555	225.703399537155	0.019750642318
1	1560	225.895162147231	0.019750642318
1	1565	226.126588962308	0.019750642318
1	1570	226.196506956729	0.019750642318
1	1575	226.288103917092	0.019750642318
1	1580	227.724826823523	0.019750642318
1	1585	227.89190266592	0.019750642318
1	1590	228.305953232275	0.019750642318
1	1595	229.704522119956	0.019750642318
1	1600	229.739459365923	0.019750642318
1	1605	231.696805993166	0.019750642318
1	1610	232.511685659695	0.019750642318
1	1615	232.694670264771	0.019750642318
1	1620	233.015047848071	0.019750642318
1	1625	234.825172271133	0.019750642318
1	1630	235.56328096769	0.019750642318
1	1635	236.016971751584	0.019750642318
1	1640	236.536152103694	0.019750642318
1	1645	237.280351945892	0.019750642318
1	1650	237.703166434654	0.019750642318
1	1655	237.780898567374	0.019750642318
1	1660	238.245343256108	0.019750642318
1	1668	238.404238215813	0.154142815618
1	1671	238.423988858131	0.125244187459
1	1676	238.600046649013	0.019750642318
1	1681	238.648417549641	0.019750642318
1	1686	238.99767014743	0.019750642318
1	1691	239.058551567689	0.019750642318
1	1696	240.391823275342	0.019750642318
1	1701	240.545326227127	0.019750642318
1	1706	240.657651178586	0.019750642318
1	1711	241.491126902734	0.019750642318
1	1716	241.634989294209	0.019750642318
1	1721	241.695495554944	0.019750642318
1	1726	241.727721724319	0.019750642318
1	1731	243.427410542113	0.019750642318
1	1738	243.460391476736	0.019750642318
1	1741	243.480142119054	0.036627548063
1	1746	243.925824292933	0.019750642318
1	1751	244.153616224393	0.019750642318
1	1756	246.653888043101	0.019750642318
1	1761	248.162482399102	0.019750642318
1	1766	248.244133752976	0.019750642318
1	1771	248.630642576642	0.019750642318
1	1776	249.036872975141	0.019750642318
1	1781	249.295551441651	0.019750642318
1	1786	249.955228386781	0.019750642318
1	1791	250.118293106561	0.019750642318
1	1796	250.389946208759	0.019750642318
1	1801	251.068001679275	0.019750642318
1	1806	251.711421086447	0.019750642318
1	1811	253.654486955836	0.019750642318
1	1817	254.281164102385	0.019750642318
1	1822	254.98407818265	0.019750642318
1	1827	255.456721989063	0.019750642318
1	1832	256.132824996743	0.019750642318
1	1837	256.338015217739	0.019750642318
1	1842	257.34064892473	0.019750642318
1	1847	257.429554433526	0.019750642318
1	1852	258.221999681831	0.019750642318
1	1857	258.357026066617	0.019750642318
1	1862	258.636301305027	0.019750642318
1	1867	258.695167920645	0.019750642318
1	1872	260.071124683209	0.019750642318
1	1877	260.711846079022	0.019750642318
1	1882	261.030275264217	0.019750642318
1	1887	261.54955112016	0.019750642318
1	1892	265.176235654436	0.019750642318
1	1897	267.982612274456	0.019750642318
1	1902	268.255848644832	0.019750642318
1	1909	268.283872696842	0.019750642318
1	1912	268.30362333916	0.033062538772
1	1917	268.988714611	0.019750642318
1	1922	270.904950717605	0.019750642318
1	1927	271.578737728949	0.019750642318
1	1932	271.933500737533	0.019750642318
1	1937	272.396360177332	0.019750642318
1	1942	274.392861070615	0.019750642318
1	1947	274.637812301415	0.019750642318
1	1952	275.315244944289	0.019750642318
1	1957	275.461717276069	0.019750642318
1	1962	275.948430497492	0.019750642318
1	1968	276.937946268647	0.019750642318
1	1973	278.586721546114	0.019750642318
1	1978	279.146074796832	0.019750642318
1	1983	279.511745988542	0.019750642318
1	1988	279.534231912488	0.019750642318
1	1993	281.175908883122	0.019750642318
1	1998	281.606882028112	0.019750642318
1	2003	282.112732649284	0.019750642318
1	2008	284.441562195925	0.019750642318
1	2013	284.573821254867	0.019750642318
1	2018	284.825117172053	0.019750642318
1	2023	285.367259281416	0.019750642318
1	2028	285.976831943477	0.019750642318
1	2033	286.722005185137	0.019750642318
1	2038	287.080430298867	0.019750642318
1	2043	287.296269811872	0.019750642318
1	2048	287.697721584707	0.019750642318
1	2053	288.054011403456	0.019750642318
1	2058	291.650031904699	0.019750642318
1	2063	292.539640822233	0.019750642318
1	2068	292.973432505513	0.019750642318
1	2073	293.343064188007	0.019750642318
1	2078	294.491094815422	0.019750642318
1	2083	294.61383243789	0.019750642318
1	2088	296.400594547086	0.019750642318
1	2093	297.957291808701	0.019750642318
1	2098	299.447919100122	0.019750642318
1	2103	299.766335002624	0.019750642318
1	2108	299.819935250538	0.019750642318
1	2113	300.969527854859	0.019750642318
1	2119	303.362805818497	0.019750642318
1	2124	303.669937785626	0.019750642318
1	2129	304.846283915064	0.019750642318
1	2134	305.489818888115	0.019750642318
1	2139	306.543191923061	0.019750642318
1	2144	306.634093211648	0.019750642318
1	2149	308.120630019438	0.019750642318
1	2154	309.839227185321	0.019750642318
1	2159	310.323189357215	0.019750642318
1	2164	311.883555664331	0.019750642318
1	2169	311.928440407427	0.019750642318
1	2174	313.117582884486	0.019750642318
1	2179	315.251714401909	0.019750642318
1	2184	316.495001920838	0.019750642318
1	2189	316.79086158211	0.019750642318
1	2194	316.926345153735	0.019750642318
1	2199	317.465749747317	0.019750642318
1	2204	317.696227389517	0.019750642318
1	2209	318.133951800384	0.019750642318
1	2214	318.211758602736	0.019750642318
1	2219	319.129851060039	0.019750642318
1	2224	320.796512553588	0.019750642318
1	2229	320.884859730713	0.019750642318
1	2234	321.312127887639	0.019750642318
1	2239	322.096763533738	0.019750642318
1	2244	323.056506914134	0.019750642318
1	2251	325.366898905306	0.019750642318
1	2254	325.386649547624	0.039024057589
1	2259	325.419054909792	0.019750642318
1	2264	326.306876165097	0.019750642318
1	2270	326.990307103845	0.019750642318
1	2275	327.629670247968	0.019750642318
1	2280	327.732754791286	0.019750642318
1	2285	327.825345278923	0.019750642318
1	2290	328.961064143217	0.019750642318
1	2295	329.009184361174	0.019750642318
1	2300	329.31471637763	0.019750642318
1	2305	329.726998079992	0.019750642318
1	2310	330.11033535108	0.019750642318
1	2315	330.448505248535	0.019750642318
1	2320	330.767492476709	0.019750642318
1	2325	330.827785433299	0.019750642318
1	2330	331.255770704417	0.019750642318
1	2335	331.569951516255	0.019750642318
1	2340	332.908153939039	0.019750642318
1	2345	333.049666169067	0.019750642318
1	2350	333.589494504632	0.019750642318
1	2355	334.153766458509	0.019750642318
1	2360	335.139326088168	0.019750642318
1	2365	335.394131648159	0.019750642318
1	2370	336.395233402177	0.019750642318
1	2375	337.573252107098	0.019750642318
1	2380	337.750645058599	0.019750642318
1	2385	338.486322918107	0.019750642318
1	2390	339.756424187276	0.019750642318
1	2395	340.475682485818	0.019750642318
1	2400	340.804899301386	0.019750642318
1	2405	341.102425443693	0.019750642318
1	2410	343.339122790014	0.019750642318
1	2417	343.935421770339	0.019750642318
1	2421	344.094316730044	0.16679055427
1	2426	346.718525628251	0.019750642318
1	2431	348.195452984672	0.019750642318
1	2436	348.60405520355	0.019750642318
1	2441	348.968456964681	0.019750642318
1	2446	350.438595018123	0.019750642318
1	2451	350.925291703618	0.019750642318
1	2456	352.657918212256	0.019750642318
1	2461	352.744209290128	0.019750642318
1	2466	352.787249715249	0.019750642318
1	2471	353.068439817267	0.019750642318
1	2476	353.740770010458	0.019750642318
1	2481	353.788270097851	0.019750642318
1	2486	354.316179523998	0.019750642318
1	2491	354.514507595533	0.019750642318
1	2496	354.920521059896	0.019750642318
1	2501	354.97737796885	0.019750642318
1	2506	356.021175547482	0.019750642318
1	2511	357.099301876717	0.019750642318
1	2516	358.098632214004	0.019750642318
1	2521	360.248285575089	0.019750642318
1	2526	361.478449440371	0.019750642318
1	2531	361.803260390604	0.019750642318
1	2536	362.102536340008	0.019750642318
1	2541	362.228709479956	0.019750642318
1	2546	364.702757501105	0.019750642318
1	2551	366.451961455065	0.019750642318
1	2556	368.06711345473	0.019750642318
1	2561	368.772757301519	0.019750642318
1	2566	370.150251742999	0.019750642318
1	2572	370.772962118018	0.019750642318
1	2577	371.02525504603	0.019750642318
1	2582	371.150910386529	0.019750642318
1	2587	371.271338424827	0.019750642318
1	2592	372.374796768365	0.019750642318
1	2597	373.432748204086	0.019750642318
1	2602	373.536897445261	0.019750642318
1	2607	373.969910879849	0.019750642318
1	2612	374.398885292092	0.019750642318
1	2617	375.948767528809	0.019750642318
1	2622	378.059574505539	0.019750642318
1	2627	378.601256566516	0.019750642318
1	2632	378.882381747395	0.019750642318
1	2637	379.698036406139	0.019750642318
1	2642	379.885891038842	0.019750642318
1	2647	379.937614140664	0.019750642318
1	2652	380.324352549844	0.019750642318
1	2657	380.745009100859	0.019750642318
1	2662	381.180494975531	0.019750642318
1	2667	382.057465798301	0.019750642318
1	2672	384.88302039503	0.019750642318
1	2677	385.816608950474	0.019750642318
1	2682	385.976607595429	0.019750642318
1	2687	386.297294044602	0.019750642318
1	2692	388.908100609889	0.019750642318
1	2697	389.855709372087	0.019750642318
1	2702	390.016426733321	0.019750642318
1	2707	391.046321034865	0.019750642318
1	2712	391.85244936304	0.019750642318
1	2717	392.447234825088	0.019750642318
1	2723	393.160574073898	0.019750642318
1	2728	394.23942739247	0.019750642318
1	2733	394.564301960924	0.019750642318
1	2738	394.836630368114	0.019750642318
1	2743	396.144462807847	0.019750642318
1	2748	398.127621520891	0.019750642318
1	2753	399.254919396425	0.019750642318
1	2758	399.305335120674	0.019750642318
1	2763	400.978823345181	0.019750642318
1	2768	402.808336629211	0.019750642318
1	2773	403.042251897161	0.019750642318
1	2778	403.210959802478	0.019750642318
1	2783	405.151611952966	0.019750642318
1	2788	405.5122091331	0.019750642318
1	2793	405.788417966164	0.019750642318
1	2800	406.202013278266	0.019750642318
1	2803	406.221763920584	0.035268856564
1	2808	406.260271656717	0.019750642318
1	2813	406.339517289173	0.019750642318
1	2818	406.634414619504	0.019750642318
1	2823	406.682815937511	0.019750642318
1	2828	407.34681329077	0.019750642318
1	2833	407.592399076422	0.019750642318
1	2838	408.720898505341	0.019750642318
1	2843	409.162963784839	0.019750642318
1	2848	409.639004554806	0.019750642318
1	2853	410.297550911056	0.019750642318
1	2858	410.373256271619	0.019750642318
1	2863	410.520707874415	0.019750642318
1	2868	411.461598092771	0.019750642318
1	2874	413.589097589971	0.019750642318
1	2879	413.731736089194	0.019750642318
1	2884	413.949226060938	0.019750642318
1	2889	414.184306648839	0.019750642318
1	2894	414.36763024607	0.019750642318
1	2899	419.842355077936	0.019750642318
1	2904	420.17486843535	0.019750642318
1	2909	420.373327450019	0.019750642318
1	2914	420.896289371973	0.019750642318
1	2919	421.484613949221	0.019750642318
1	2924	423.44935413251	0.019750642318
1	2929	426.119843136553	0.019750642318
1	2934	426.210936095273	0.019750642318
1	2939	426.798392521272	0.019750642318
1	2944	426.924028661903	0.019750642318
1	2949	427.109127847537	0.019750642318
1	2954	428.063478092165	0.019750642318
1	2959	429.582327765486	0.019750642318
1	2964	430.278347808413	0.019750642318
1	2969	430.747242876786	0.019750642318
1	2974	432.195732904992	0.019750642318
1	2979	432.824717521382	0.019750642318
1	2984	433.033930965742	0.019750642318
1	2989	433.847386965946	0.019750642318
1	2994	434.634617919828	0.019750642318
1	2999	435.491457887697	0.019750642318
1	3004	437.053016360935	0.019750642318
1	3009	437.903095036011	0.019750642318
1	3014	438.864745338867	0.019750642318
1	3019	440.117533174916	0.019750642318
1	3025	440.795659740203	0.019750642318
1	3030	441.546896579323	0.019750642318
1	3035	443.50989946123	0.019750642318
1	3040	444.053113084634	0.019750642318
1	3045	445.898030466399	0.019750642318
1	3050	446.982437199479	0.019750642318
1	3055	448.21419767056	0.019750642318
1	3060	448.728761575307	0.019750642318
1	3065	449.318505467925	0.019750642318
1	3070	450.838794282604	0.019750642318
1	3075	451.489675274174	0.019750642318
1	3080	452.773266116706	0.019750642318
1	3085	452.843924925519	0.019750642318
1	3090	453.604653433094	0.019750642318
1	3095	454.613843473782	0.019750642318
1	3100	456.263918323908	0.019750642318
1	3105	456.6353988663	0.019750642318
1	3110	457.748125279255	0.019750642318
1	3115	458.053234256778	0.019750642318
1	3120	458.57890307212	0.019750642318
1	3125	461.206181276543	0.019750642318
1	3130	461.546070974705	0.019750642318
1	3137	462.19312010275	0.019750642318
1	3140	462.212870745068	0.021388383625
1	3145	462.387745808044	0.019750642318
1	3150	463.995026030735	0.019750642318
1	3155	464.027880163113	0.019750642318
1	3160	465.981946860462	0.019750642318
1	3165	466.966357905527	0.019750642318
1	3170	467.608901163233	0.019750642318
1	3176	468.709977837688	0.019750642318
1	3181	468.762998860532	0.019750642318
1	3186	469.289728624254	0.019750642318
1	3191	469.568497345216	0.019750642318
1	3196	470.402932330842	0.019750642318
1	3201	471.491840153771	0.019750642318
1	3206	476.199953128248	0.019750642318
1	3211	476.83201361966	0.019750642318
1	3216	477.056811915852	0.019750642318
1	3221	477.121537122589	0.019750642318
1	3226	478.405977023302	0.019750642318
1	3231	478.439454493483	0.019750642318
1	3236	478.476434466499	0.019750642318
1	3241	478.613519804588	0.019750642318
1	3246	480.063313573911	0.019750642318
1	3251	480.398864148003	0.019750642318
1	3256	481.130069308082	0.019750642318
1	3261	481.651160096248	0.019750642318
1	3266	481.954348505902	0.019750642318
1	3271	483.069138822648	0.019750642318
1	3278	483.987642104568	0.019750642318
1	3283	484.007392746886	0.026537257116
1	3286	484.027143389204	0.023772723247
1	3291	485.908766891629	0.019750642318
1	3296	486.543986957384	0.019750642318
1	3301	486.80788453099	0.019750642318
1	3306	486.950601063956	0.019750642318
1	3311	487.93985094802	0.019750642318
1	3316	488.091084457041	0.019750642318
1	3321	488.754145958192	0.019750642318
1	3327	489.269324546697	0.019750642318
1	3332	489.627590860058	0.019750642318
1	3337	489.732464205162	0.019750642318
1	3342	489.934532395889	0.019750642318
1	3347	491.87152113896	0.019750642318
1	3352	492.763817153376	0.019750642318
1	3357	493.602655043503	0.019750642318
1	3362	495.886844185602	0.019750642318
1	3367	496.94587728064	0.019750642318
1	3372	497.250303757091	0.019750642318
1	3377	497.741284081857	0.019750642318
1	3382	500.713137178825	0.019750642318
1	3387	500.783876552897	0.019750642318
1	3392	503.46561778469	0.019750642318
1	3397	505.187395638863	0.019750642318
1	3402	505.670034086509	0.019750642318
1	3407	506.852909526716	0.019750642318
1	3412	507.602414384281	0.019750642318
1	3417	507.665557072987	0.019750642318
1	3422	508.445825016903	0.019750642318
1	3427	508.991937621146	0.019750642318
1	3432	509.029597805753	0.019750642318
1	3437	509.282313952078	0.019750642318
1	3442	510.010139380552	0.019750642318
1	3447	510.086971596334	0.019750642318
1	3452	510.603170037833	0.019750642318
1	3457	511.224820136026	0.019750642318
1	3462	512.836216726087	0.019750642318
1	3467	513.554120556026	0.019750642318
1	3472	513.619264253085	0.019750642318
1	3478	513.77815921279	0.066182037487
1	3483	514.437748421757	0.019750642318
1	3488	516.193664343266	0.019750642318
1	3493	518.490738321635	0.019750642318
1	3498	518.773587308885	0.019750642318
1	3503	521.387859875117	0.019750642318
1	3508	522.766683287007	0.019750642318
1	3513	522.859930623163	0.019750642318
1	3518	523.231606569354	0.019750642318
1	3523	525.088255768593	0.019750642318
1	3528	525.712702927501	0.019750642318
1	3533	525.963706786512	0.019750642318
1	3538	526.433984755608	0.019750642318
1	3543	528.644389825218	0.019750642318
1	3548	529.611296939786	0.019750642318
1	3553	530.680020350413	0.019750642318
1	3558	531.688122047856	0.019750642318
1	3563	532.142927605406	0.019750642318
1	3568	533.071304920682	0.019750642318
1	3573	533.433455388481	0.019750642318
1	3578	533.540181131314	0.019750642318
1	3583	534.18308633889	0.019750642318
1	3588	535.591814864262	0.019750642318
1	3593	535.750712611741	0.019750642318
1	3598	536.199154235706	0.019750642318
1	3603	536.305024502265	0.019750642318
1	3608	537.320054945615	0.019750642318
1	3613	537.484426517457	0.019750642318
1	3618	537.923673084344	0.019750642318
1	3623	538.035460839392	0.019750642318
1	3629	538.194355799097	0.141952922841
1	3636	538.439416243879	0.019750642318
1	3639	538.459166886197	0.037565056278
1	3644	538.628244636702	0.019750642318
1	3649	538.812073992735	0.019750642318
1	3654	541.307087001488	0.019750642318
1	3659	541.457455642536	0.019750642318
1	3664	541.607683043059	0.019750642318
1	3669	541.662942752095	0.019750642318
1	3674	541.863624926827	0.019750642318
1	3681	541.925039425973	0.019750642318
1	3684	541.944790068291	0.031368886769
1	3689	542.352923057508	0.019750642318
1	3694	542.445226271182	0.019750642318
1	3699	543.268360807531	0.019750642318
1	3704	543.770372076079	0.019750642318
1	3709	544.014822434264	0.019750642318
1	3714	544.671812623894	0.019750642318
1	3719	545.433874616002	0.019750642318
1	3724	545.876981642952	0.019750642318
1	3729	546.417602276874	0.019750642318
1	3734	547.464132407982	0.019750642318
1	3739	548.269358376766	0.019750642318
1	3744	548.969534725637	0.019750642318
1	3749	550.807925675936	0.019750642318
1	3754	550.891014475216	0.019750642318
1	3759	552.751989615369	0.019750642318
1	3764	552.828998013719	0.019750642318
1	3769	552.922347375251	0.019750642318
1	3774	553.53125382764	0.019750642318
1	3780	554.220186328856	0.019750642318
1	3785	556.260951702965	0.019750642318
1	3790	556.430390597683	0.019750642318
1	3795	556.564618117656	0.019750642318
1	3800	557.480014953597	0.019750642318
1	3805	557.555391324439	0.019750642318
1	3810	558.156512070395	0.019750642318
1	3815	558.616463251233	0.019750642318
1	3820	559.640539625754	0.019750642318
1	3825	560.536388848647	0.019750642318
1	3830	560.69179009395	0.019750642318
1	3835	561.144690779783	0.019750642318
1	3840	561.181720982841	0.019750642318
1	3845	564.4499643913	0.019750642318
1	3850	564.940093442575	0.019750642318
1	3855	566.366535270072	0.019750642318
1	3860	566.773469268706	0.019750642318
1	3865	567.303783013291	0.019750642318
1	3870	568.477719517151	0.019750642318
1	3875	568.555688454291	0.019750642318
1	3880	568.932181462166	0.019750642318
1	3885	569.660114336774	0.019750642318
1	3890	571.908981471698	0.019750642318
1	3895	572.385365615768	0.019750642318
1	3900	573.057127572921	0.019750642318
1	3905	575.597931703287	0.019750642318
1	3910	576.051144267795	0.019750642318
1	3915	577.474833885764	0.019750642318
1	3920	577.639174531444	0.019750642318
1	3925	577.708519138605	0.019750642318
1	3931	578.256576285295	0.019750642318
1	3936	579.159686099969	0.019750642318
1	3941	579.371519432738	0.019750642318
1	3946	579.515662177273	0.019750642318
1	3951	581.307426139063	0.019750642318
1	3956	582.677680126978	0.019750642318
1	3961	583.106718996767	0.019750642318
1	3966	583.191319089342	0.019750642318
1	3971	583.449559015875	0.019750642318
1	3976	585.689961364935	0.019750642318
1	3981	585.861247129986	0.019750642318
1	3986	587.674015377412	0.019750642318
1	3991	588.079887239576	0.019750642318
1	3996	588.216705265778	0.019750642318
1	4001	588.480317718287	0.019750642318
1	4006	588.684549131761	0.019750642318
1	4011	591.232497930097	0.019750642318
1	4016	592.028587555302	0.019750642318
1	4021	592.983045342745	0.019750642318
1	4026	593.465193333299	0.019750642318
1	4031	593.512938692636	0.019750642318
1	4036	593.650292959295	0.019750642318
1	4041	593.697401143245	0.019750642318
1	4046	594.100225349119	0.019750642318
1	4051	595.332053114767	0.019750642318
1	4056	596.464521915159	0.019750642318
1	4061	597.038497161153	0.019750642318
1	4066	597.143123937566	0.019750642318
1	4073	597.449321389958	0.019750642318
1	4076	597.469072032276	0.03447003304
1	4082	598.682809239569	0.019750642318
1	4087	599.696630300889	0.019750642318
1	4092	601.040889192844	0.019750642318
1	4097	601.410325297088	0.019750642318
1	4102	602.056827870288	0.019750642318
1	4107	602.098022330656	0.019750642318
1	4112	602.61834556507	0.019750642318
1	4117	602.641066055885	0.019750642318
1	4122	603.517525390623	0.019750642318
1	4127	603.764847109293	0.019750642318
1	4134	604.416597636521	0.019750642318
1	4137	604.436348278839	0.030245820908
1	4142	605.045569994756	0.019750642318
1	4147	606.554955632058	0.019750642318
1	4152	606.906662497055	0.019750642318
1	4157	607.639638630722	0.019750642318
1	4162	608.625314421363	0.019750642318
1	4167	609.32687171136	0.019750642318
1	4172	609.793537347983	0.019750642318
1	4177	610.058035862087	0.019750642318
1	4182	611.222884484174	0.019750642318
1	4187	611.275382834715	0.019750642318
1	4192	611.823733629868	0.019750642318
1	4197	612.828274339563	0.019750642318
1	4202	613.818607032347	0.019750642318
1	4207	613.945208625887	0.019750642318
1	4212	614.430099781625	0.019750642318
1	4217	615.433441698199	0.019750642318
1	4222	615.496810402059	0.019750642318
1	4227	615.558024458319	0.019750642318
1	4233	616.508147968396	0.019750642318
1	4238	617.295390642237	0.019750642318
1	4243	617.636238799247	0.019750642318
1	4248	618.663138790232	0.019750642318
1	4253	620.633009228406	0.019750642318
1	4258	621.443959000321	0.019750642318
1	4263	622.144511021388	0.019750642318
1	4268	622.670557795638	0.019750642318
1	4273	623.051118050662	0.019750642318
1	4278	624.226814661851	0.019750642318
1	4283	625.599899086413	0.019750642318
1	4288	626.167089190023	0.019750642318
1	4293	627.60335295033	0.019750642318
1	4298	628.143240175588	0.019750642318
1	4303	629.688099879173	0.019750642318
1	4308	630.836150269007	0.019750642318
1	4313	631.058016797173	0.019750642318
1	4318	631.64033802919	0.019750642318
1	4323	631.896516285297	0.019750642318
1	4328	631.951612455932	0.019750642318
1	4333	632.179739324769	0.019750642318
1	4338	632.34478583817	0.019750642318
1	4343	632.925716025091	0.019750642318
1	4348	633.051611489817	0.019750642318
1	4353	633.18116986991	0.019750642318
1	4358	634.821247474798	0.019750642318
1	4363	634.913349465648	0.019750642318
1	4368	635.306976113116	0.019750642318
1	4373	638.184299775074	0.019750642318
1	4378	638.355964905226	0.019750642318
1	4384	638.756457598501	0.019750642318
1	4391	639.212671073757	0.019750642318
1	4394	639.232421716075	0.029768224086
1	4399	639.754952403026	0.019750642318
1	4404	639.790884511072	0.019750642318
1	4409	639.980007034784	0.019750642318
1	4414	640.04950070482	0.019750642318
1	4419	641.738551698567	0.019750642318
1	4426	641.853335108854	0.019750642318
1	4429	641.873085751172	0.02857745835
1	4434	642.047680303143	0.019750642318
1	4439	642.992400982357	0.019750642318
1	4444	643.218159686684	0.019750642318
1	4449	643.435706954243	0.019750642318
1	4454	644.288102164588	0.019750642318
1	4459	644.947288104769	0.019750642318
1	4464	645.715978313756	0.019750642318
1	4469	646.46972482234	0.019750642318
1	4474	646.763726462864	0.019750642318
1	4479	646.842264369975	0.019750642318
1	4484	647.139381084113	0.019750642318
1	4489	647.421441740036	0.019750642318
1	4494	648.017250723663	0.019750642318
1	4499	648.26548305115	0.019750642318
1	4504	648.68047039762	0.019750642318
1	4509	649.895739183262	0.019750642318
1	4514	651.416209125024	0.019750642318
1	4519	653.328710780175	0.019750642318
1	4524	653.943817657209	0.019750642318
1	4529	656.99839937233	0.019750642318
1	4535	658.319112696826	0.019750642318
1	4540	659.63404476291	0.019750642318
1	4545	659.905063289309	0.019750642318
1	4550	660.315648198602	0.019750642318
1	4555	660.662070773377	0.019750642318
1	4560	660.739296293468	0.019750642318
1	4565	660.990410983589	0.019750642318
1	4570	663.279887322462	0.019750642318
1	4575	663.370868882633	0.019750642318
1	4580	663.984698641704	0.019750642318
1	4585	665.069699869235	0.019750642318
1	4590	666.072241185098	0.019750642318
1	4595	666.248614196041	0.019750642318
1	4600	666.462358060761	0.019750642318
1	4607	666.606931260098	0.019750642318
1	4610	666.626681902416	0.033518827309
1	4615	668.061388374025	0.019750642318
1	4620	668.395605920068	0.019750642318
1	4625	670.662227012744	0.019750642318
1	4630	670.816860097355	0.019750642318
1	4635	671.059965952136	0.019750642318
1	4640	671.273139857742	0.019750642318
1	4645	671.504975692996	0.019750642318
1	4650	671.865894690277	0.019750642318
1	4655	673.597990267783	0.019750642318
1	4660	674.076406762922	0.019750642318
1	4665	675.90655895157	0.019750642318
1	4670	677.782453306014	0.019750642318
1	4675	678.400582674032	0.019750642318
1	4680	678.488693567312	0.019750642318
1	4686	678.772338576756	0.019750642318
1	4691	680.776397085795	0.019750642318
1	4696	680.831384653908	0.019750642318
1	4703	681.663173527045	0.019750642318
1	4706	681.682924169363	0.032883063499
1	4711	681.863408676381	0.019750642318
1	4716	681.945467021768	0.019750642318
1	4721	682.660534550153	0.019750642318
1	4726	683.87841321774	0.019750642318
1	4731	684.322295625339	0.019750642318
1	4736	684.557013349642	0.019750642318
1	4741	684.854363074561	0.019750642318
1	4746	685.317325942126	0.019750642318
1	4751	685.923653298087	0.019750642318
1	4756	686.813431083558	0.019750642318
1	4761	686.947965935498	0.019750642318
1	4766	688.529357322036	0.019750642318
1	4771	688.80525900698	0.019750642318
1	4776	689.098936659135	0.019750642318
1	4781	689.258283225001	0.019750642318
1	4786	689.855468067313	0.019750642318
1	4791	689.981349243387	0.019750642318
1	4796	690.284815787127	0.019750642318
1	4801	690.653105737708	0.019750642318
1	4806	690.845191227537	0.019750642318
1	4811	690.912992086293	0.019750642318
1	4816	691.400294319264	0.019750642318
1	4821	691.527670386524	0.019750642318
1	4826	691.930508467892	0.019750642318
1	4831	694.670001847467	0.019750642318
1	4837	697.099286392419	0.019750642318
1	4842	697.365851222165	0.019750642318
1	4847	697.724882825698	0.019750642318
1	4852	698.157478538504	0.019750642318
1	4857	698.334351517608	0.019750642318
1	4862	699.030509125355	0.019750642318
1	4867	699.185894148739	0.019750642318
1	4872	702.001685257522	0.019750642318
1	4877	702.716155356325	0.019750642318
1	4882	704.250513912055	0.019750642318
1	4887	704.344977513202	0.019750642318
1	4892	706.06025311465	0.019750642318
1	4897	706.445000726882	0.019750642318
1	4902	706.480169518139	0.019750642318
1	4907	708.505694307067	0.019750642318
1	4912	708.759501926289	0.019750642318
1	4917	709.878642472931	0.019750642318
1	4922	709.936711366085	0.019750642318
1	4927	710.161563510522	0.019750642318
1	4932	710.851797671778	0.019750642318
1	4937	711.145468108817	0.019750642318
1	4942	712.019080557161	0.019750642318
1	4947	712.331292148956	0.019750642318
1	4952	712.846874588282	0.019750642318
1	4959	713.311806027004	0.019750642318
1	4962	713.331556669322	0.025364828087
1	4967	714.048639522277	0.019750642318
1	4972	714.344783566613	0.019750642318
1	4977	714.655647526288	0.019750642318
1	4982	715.39909006477	0.019750642318
1	4988	715.557985024475	0.104680030557
1	4995	716.47434760317	0.019750642318
1	4998	716.494098245488	0.038286733991
1	5003	717.484194026739	0.019750642318
1	5008	717.825518665544	0.019750642318
1	5013	718.798569536113	0.019750642318
1	5018	719.28840764269	0.019750642318
1	5023	720.925464871164	0.019750642318
1	5028	721.918487380832	0.019750642318
1	5033	722.305236102408	0.019750642318
1	5038	723.630061680094	0.019750642318
1	5043	723.800439940078	0.019750642318
1	5048	724.684532837397	0.019750642318
1	5053	725.820890255645	0.019750642318
1	5058	727.396981362163	0.019750642318
1	5063	728.310989480924	0.019750642318
1	5068	729.297964778981	0.019750642318
1	5073	729.437746314739	0.019750642318
1	5078	729.490651288331	0.019750642318
1	5083	729.908548186854	0.019750642318
1	5088	730.039963164276	0.019750642318
1	5093	730.230772813102	0.019750642318
1	5098	731.102184935205	0.019750642318
1	5103	731.266035803502	0.019750642318
1	5108	733.377266069073	0.019750642318
1	5113	734.011754563481	0.019750642318
1	5118	734.454520756444	0.019750642318
1	5123	734.564898031049	0.019750642318
1	5128	734.799462425834	0.019750642318
1	5133	735.646887236296	0.019750642318
1	5139	735.902839269911	0.019750642318
1	5144	736.386232086105	0.019750642318
1	5149	736.698171906966	0.019750642318
1	5154	737.200813916469	0.019750642318
1	5159	738.978686464607	0.019750642318
1	5164	739.074534047832	0.019750642318
1	5169	739.231626630113	0.019750642318
1	5174	739.548574631774	0.019750642318
1	5179	739.773121263792	0.019750642318
1	5184	741.900715152602	0.019750642318
1	5189	742.687377793657	0.019750642318
1	5194	742.762934186721	0.019750642318
1	5199	743.370773501249	0.019750642318
1	5204	744.972799494376	0.019750642318
1	5209	744.992913701349	0.019750642318
1	5214	746.495458592511	0.019750642318
1	5219	746.608210289916	0.019750642318
1	5224	747.614919307036	0.019750642318
1	5229	747.901739237494	0.019750642318
1	5234	748.199596866272	0.019750642318
1	5239	748.230834839577	0.019750642318
1	5244	749.119466083403	0.019750642318
1	5249	749.315007119343	0.019750642318
1	5254	749.725652460582	0.019750642318
1	5259	752.408538957989	0.019750642318
1	5264	753.4623071377	0.019750642318
1	5269	754.420503527798	0.019750642318
1	5274	754.597124773577	0.019750642318
1	5279	754.75858950644	0.019750642318
1	5284	755.035468584087	0.019750642318
1	5290	755.726661789561	0.019750642318
1	5295	756.633885649744	0.019750642318
1	5300	756.724119502009	0.019750642318
1	5305	757.011223460612	0.019750642318
1	5310	758.497869334665	0.019750642318
1	5315	758.752971136584	0.019750642318
1	5320	758.998114579033	0.019750642318
1	5325	759.454549519641	0.019750642318
1	5330	759.646994574207	0.019750642318
1	5335	761.554659332877	0.019750642318
1	5340	762.577941593567	0.019750642318
1	5345	762.657616098803	0.019750642318
1	5350	763.949705549535	0.019750642318
1	5355	764.137716770211	0.019750642318
1	5360	764.660020754828	0.019750642318
1	5365	766.537507154067	0.019750642318
1	5370	767.453437079881	0.019750642318
1	5375	768.262308453963	0.019750642318
1	5380	769.340286166779	0.019750642318
1	5385	769.395400240181	0.019750642318
1	5390	772.298146504609	0.019750642318
1	5395	772.482819905193	0.019750642318
1	5400	772.723698994439	0.019750642318
1	5405	773.258692369581	0.019750642318
1	5410	773.404380375593	0.019750642318
1	5415	773.910581155687	0.019750642318
1	5420	774.671696083509	0.019750642318
1	5425	774.862617613286	0.019750642318
1	5430	775.305450414875	0.019750642318
1	5435	776.670044068875	0.019750642318
1	5441	778.340089730626	0.019750642318
1	5446	781.815694026488	0.019750642318
1	5451	781.97267714563	0.019750642318
1	5456	782.942000778521	0.019750642318
1	5461	784.600131036139	0.019750642318
1	5466	785.040939695812	0.019750642318
1	5471	785.196523563018	0.019750642318
1	5476	787.249555999986	0.019750642318
1	5481	787.935262237391	0.019750642318
1	5486	788.780741706574	0.019750642318
1	5491	788.87729269313	0.019750642318
1	5496	789.168221279241	0.019750642318
1	5501	789.790265806764	0.019750642318
1	5506	790.329669112516	0.019750642318
1	5511	790.781693949276	0.019750642318
1	5516	791.843877695332	0.019750642318
1	5521	792.582076651658	0.019750642318
1	5526	792.84215908986	0.019750642318
1	5531	793.587199483477	0.019750642318
1	5536	794.09868265899	0.019750642318
1	5541	794.506193029026	0.019750642318
1	5546	795.967647100508	0.019750642318
1	5551	796.053446863834	0.019750642318
1	5558	796.879633600757	0.019750642318
1	5561	796.899384243075	0.026642016472
1	5566	798.245236437581	0.019750642318
1	5571	798.421546359918	0.019750642318
1	5576	799.060135702497	0.019750642318
1	5581	799.082330169903	0.019750642318
1	5586	800.283645355027	0.019750642318
1	5592	800.837484605809	0.019750642318
1	5597	801.042356829099	0.019750642318
1	5602	801.273015199258	0.019750642318
1	5607	802.108013950436	0.019750642318
1	5612	802.265894108129	0.019750642318
1	5617	803.398601135357	0.019750642318
1	5622	803.854327164745	0.019750642318
1	5627	804.522983176038	0.019750642318
1	5632	805.608514526121	0.019750642318
1	5637	806.010596594614	0.019750642318
1	5642	807.064340292778	0.019750642318
1	5647	807.54187305642	0.019750642318
1	5652	809.009537780124	0.019750642318
1	5657	809.046164539627	0.019750642318
1	5662	809.546544005589	0.019750642318
1	5667	812.048121074852	0.019750642318
1	5672	812.335212673669	0.019750642318
1	5677	813.714881843875	0.019750642318
1	5682	814.543666376548	0.019750642318
1	5687	814.966718388759	0.019750642318
1	5692	816.016931822228	0.019750642318
1	5697	817.281189059794	0.019750642318
1	5702	818.564444487993	0.019750642318
1	5707	819.04415560237	0.019750642318
1	5712	819.091184498784	0.019750642318
1	5717	819.285387883231	0.019750642318
1	5722	819.423720151235	0.019750642318
1	5727	819.947418559122	0.019750642318
1	5732	820.108370595076	0.019750642318
1	5737	820.749074498891	0.019750642318
1	5743	821.998207597161	0.019750642318
1	5748	822.655288059934	0.019750642318
1	5753	823.770376248237	0.019750642318
1	5758	825.002820323013	0.019750642318
1	5763	825.893841925133	0.019750642318
1	5768	826.07113410487	0.019750642318
1	5773	828.422618080021	0.019750642318
1	5778	828.449298526393	0.019750642318
1	5783	828.63283481602	0.019750642318
1	5788	828.905519965886	0.019750642318
1	5793	829.177878513353	0.019750642318
1	5798	829.952393201262	0.019750642318
1	5803	829.989493035506	0.019750642318
1	5808	831.246039565814	0.019750642318
1	5813	832.483711475368	0.019750642318
1	5818	832.592922808851	0.019750642318
1	5823	833.044964748359	0.019750642318
1	5828	834.987329818437	0.019750642318
1	5833	835.866727213099	0.019750642318
1	5838	836.021392422995	0.019750642318
1	5843	836.642807861722	0.019750642318
1	5848	838.738788475206	0.019750642318
1	5853	838.955738815403	0.019750642318
1	5858	839.535892963734	0.019750642318
1	5863	839.94467905245	0.019750642318
1	5868	840.235388299595	0.019750642318
1	5873	841.140208481934	0.019750642318
1	5878	841.530619724849	0.019750642318
1	5883	841.908407725539	0.019750642318
1	5888	842.067571044859	0.019750642318
1	5894	842.393697565887	0.019750642318
1	5899	842.664372114767	0.019750642318
1	5904	845.327266298609	0.019750642318
1	5909	845.356880743974	0.019750642318
1	5914	847.620360771365	0.019750642318
1	5919	849.968997072068	0.019750642318
1	5924	850.909224483909	0.019750642318
1	5929	852.363898805111	0.019750642318
1	5934	853.873185960522	0.019750642318
1	5939	854.243921781537	0.019750642318
1	5944	855.333566928867	0.019750642318
1	5949	856.030301728849	0.019750642318
1	5954	856.315639631333	0.019750642318
1	5959	857.171336216447	0.019750642318
1	5964	857.258219607638	0.019750642318
1	5969	858.062844438669	0.019750642318
1	5974	859.32752866447	0.019750642318
1	5979	860.10081073055	0.019750642318
1	5984	860.137745120174	0.019750642318
1	5989	861.494852533756	0.019750642318
1	5994	862.6481801742	0.019750642318
1	5999	865.532802907758	0.019750642318
1	6004	866.784686664186	0.019750642318
1	6009	866.811415277244	0.019750642318
1	6014	867.741142236149	0.019750642318
1	6019	868.744818735475	0.019750642318
1	6024	872.419814791537	0.019750642318
1	6029	873.433720654576	0.019750642318
1	6034	876.565372678925	0.019750642318
1	6039	877.049400438518	0.019750642318
1	6045	878.028177115561	0.019750642318
1	6050	878.801381324384	0.019750642318
1	6055	879.175077197561	0.019750642318
1	6060	879.926489440084	0.019750642318
1	6065	880.151462762588	0.019750642318
1	6070	880.840247480758	0.019750642318
1	6075	883.263257533659	0.019750642318
1	6080	883.487056321813	0.019750642318
1	6085	883.521422570589	0.019750642318
1	6090	884.685538373703	0.019750642318
1	6095	886.196905517575	0.019750642318
1	6100	886.290460574975	0.019750642318
1	6105	886.392621313387	0.019750642318
1	6110	886.840472912939	0.019750642318
1	6117	887.623803235542	0.019750642318
1	6120	887.64355387786	0.033383691507
1	6125	888.525066733339	0.019750642318
1	6130	888.868237078414	0.019750642318
1	6135	890.360787664721	0.019750642318
1	6140	891.445408341011	0.019750642318
1	6145	892.88638664131	0.019750642318
1	6150	894.684718443108	0.019750642318
1	6155	895.080965784012	0.019750642318
1	6162	895.397386968968	0.019750642318
1	6165	895.417137611286	0.031878455633
1	6170	895.948785364348	0.019750642318
1	6177	896.267877980491	0.019750642318
1	6180	896.287628622809	0.037325825743
1	6187	900.753552305608	0.019750642318
1	6190	900.773302947926	0.030008969446
1	6196	901.293789950326	0.019750642318
1	6201	901.483276262144	0.019750642318
1	6206	901.744042212542	0.019750642318
1	6211	901.779997177028	0.019750642318
1	6216	903.058356630394	0.019750642318
1	6221	903.236683053858	0.019750642318
1	6226	903.772982684424	0.019750642318
1	6231	904.934954636626	0.019750642318
1	6238	905.795071041269	0.019750642318
1	6241	905.814821683587	0.035358742879
1	6246	905.950403410145	0.019750642318
1	6251	906.168026792458	0.019750642318
1	6256	906.966031029851	0.019750642318
1	6261	908.875345612591	0.019750642318
1	6266	909.006073984814	0.019750642318
1	6271	909.169553115768	0.019750642318
1	6276	909.468572400412	0.019750642318
1	6281	909.698897715304	0.019750642318
1	6286	910.172335366305	0.019750642318
1	6291	911.696327236856	0.019750642318
1	6296	911.753605410479	0.019750642318
1	6301	912.293587478256	0.019750642318
1	6306	912.758823373706	0.019750642318
1	6311	914.381124006225	0.019750642318
1	6316	914.572763849644	0.019750642318
1	6321	915.938534522581	0.019750642318
1	6326	916.174427931907	0.019750642318
1	6331	916.205236528947	0.019750642318
1	6336	917.076209140837	0.019750642318
1	6341	917.920360807696	0.019750642318
1	6347	918.668844829816	0.019750642318
1	6352	923.685223139125	0.019750642318
1	6357	923.816648580219	0.019750642318
1	6362	924.228482173091	0.019750642318
1	6367	924.603377701462	0.019750642318
1	6372	926.066376909661	0.019750642318
1	6377	927.695794898473	0.019750642318
1	6382	927.962159873939	0.019750642318
1	6387	929.502886231583	0.019750642318
1	6394	929.645186164539	0.019750642318
1	6397	929.664936806857	0.032929853251
1	6402	929.948804402742	0.019750642318
1	6407	931.591112298308	0.019750642318
1	6412	932.14091976597	0.019750642318
1	6417	932.779559534117	0.019750642318
1	6422	932.958895531638	0.019750642318
1	6427	933.488171622537	0.019750642318
1	6432	934.758558648386	0.019750642318
1	6437	935.211479428427	0.019750642318
1	6442	935.632211105913	0.019750642318
1	6447	935.755079796994	0.019750642318
1	6452	936.052844126357	0.019750642318
1	6457	936.290266529829	0.019750642318
1	6462	936.650620034197	0.019750642318
1	6467	938.656253151761	0.019750642318
1	6474	940.13914186565	0.019750642318
1	6477	940.158892507968	0.03697123225
1	6482	940.85238771643	0.019750642318
1	6487	942.400699035757	0.019750642318
1	6492	942.470050090501	0.019750642318
1	6498	943.413967975062	0.019750642318
1	6503	943.76767182704	0.019750642318
1	6508	943.887641564993	0.019750642318
1	6513	944.19500584101	0.019750642318
1	6518	944.489005389225	0.019750642318
1	6523	944.906229173902	0.019750642318
1	6528	946.863536961326	0.019750642318
1	6533	947.08500711032	0.019750642318
1	6538	947.845495044732	0.019750642318
1	6543	948.730487408647	0.019750642318
1	6548	948.982970983919	0.019750642318
1	6553	949.376700082078	0.019750642318
1	6558	951.524368112284	0.019750642318
1	6563	953.10011183051	0.019750642318
1	6568	953.972757886137	0.019750642318
1	6573	954.637097188157	0.019750642318
1	6578	955.411232181699	0.019750642318
1	6583	956.351926271472	0.019750642318
1	6588	956.933561657782	0.019750642318
1	6593	957.246370235513	0.019750642318
1	6598	957.300278072212	0.019750642318
1	6603	957.554802646753	0.019750642318
1	6608	957.675132081786	0.019750642318
1	6613	957.900927630214	0.019750642318
1	6618	962.454436126614	0.019750642318
1	6623	962.640871718336	0.019750642318
1	6628	963.063163096151	0.019750642318
1	6633	963.507063593167	0.019750642318
1	6638	963.719917750653	0.019750642318
1	6643	964.525525145727	0.019750642318
1	6649	964.684420105432	0.135799518603
1	6654	965.038350756701	0.019750642318
1	6659	966.562036448605	0.019750642318
1	6664	969.537884789687	0.019750642318
1	6669	970.093142359297	0.019750642318
1	6674	971.909141050763	0.019750642318
1	6679	972.064256062072	0.019750642318
1	6684	972.334465742154	0.019750642318
1	6689	973.19664936856	0.019750642318
1	6694	973.326128322011	0.019750642318
1	6699	973.390151177777	0.019750642318
1	6704	975.315376936701	0.019750642318
1	6709	976.072556027024	0.019750642318
1	6714	976.148703881309	0.019750642318
1	6719	976.936846057655	0.019750642318
1	6724	978.09678686819	0.019750642318
1	6731	978.600608316294	0.019750642318
1	6734	978.620358958612	0.030638259977
1	6739	979.342854462037	0.019750642318
1	6744	979.499896417709	0.019750642318
1	6749	979.663066750621	0.019750642318
1	6754	979.993470618867	0.019750642318
1	6759	980.173300592093	0.019750642318
1	6764	980.531642798396	0.019750642318
1	6769	981.110055068496	0.019750642318
1	6774	981.266348459582	0.019750642318
1	6779	981.975193210468	0.019750642318
1	6784	982.944520619589	0.019750642318
1	6789	983.426229076739	0.019750642318
1	6794	984.166902453738	0.019750642318
1	6800	985.346297989487	0.019750642318
1	6805	985.954728872433	0.019750642318
1	6810	986.139978348469	0.019750642318
1	6815	987.800672985899	0.019750642318
1	6820	988.43220982154	0.019750642318
1	6825	990.194944787723	0.019750642318
1	6830	990.512027069825	0.019750642318
1	6835	990.600089805959	0.019750642318
1	6840	990.676510486904	0.019750642318
1	6845	992.212472082275	0.019750642318
1	6850	993.156457449767	0.019750642318
1	6855	993.777563907096	0.019750642318
1	6860	994.745067428733	0.019750642318
1	6865	996.38579332591	0.019750642318
1	6870	996.785825858141	0.019750642318
1	6875	997.869297750674	0.019750642318
1	6880	999.129516919417	0.019750642318
1	6885	999.18200555277	0.019750642318
1	6890	999.30766250779	0.019750642318
2	5	0.524529571293	0
2	10	1.230053138385	0
2	15	2.500587010453	0
2	20	2.602158669369	0
2	25	2.632407101585	0
2	30	2.732771488703	0
2	35	5.207393056454	0
2	42	6.317206187528	0
2	45	6.336956829846	0.00301360503
2	50	6.83866437223	0
2	55	7.528879842805	0
2	62	7.909189999236	0
2	65	7.928940641554	0.01016127466
2	70	8.535044073989	0
2	75	8.583848422852	0
2	80	9.06225654254	0
2	85	9.158922425433	0
2	90	9.451364387065	0
2	95	9.613609613392	0
2	100	9.722018537067	0
2	105	9.932482123308	0
2	110	11.518535749268	0
2	115	12.070504424502	0
2	120	12.13497996321	0
2	125	12.160133593058	0
2	130	13.503469904364	0
2	135	13.774282646839	0
2	140	14.313000564055	0
2	145	15.596672319485	0
2	150	16.167449016368	0
2	156	16.326343976073	0.079231081545
2	161	17.594907808223	0
2	166	17.860747572277	0
2	171	17.984434029519	0
2	176	18.523405321135	0
2	181	18.776131310284	0
2	186	19.302080468127	0
2	191	20.518290781565	0
2	196	21.374589061763	0
2	201	24.097495096575	0
2	206	25.536317377506	0
2	211	27.468499090351	0
2	216	29.274808739123	0
2	221	29.540283147464	0
2	226	31.345109719566	0
2	231	31.814030087487	0
2	236	31.864344580492	0
2	241	32.2090137095	0
2	246	32.326691202474	0
2	251	33.807729187743	0
2	256	34.099062365238	0
2	261	34.421761129683	0
2	266	34.675318858694	0
2	271	35.022398889665	0
2	276	35.240061398033	0
2	281	35.265624265157	0
2	286	35.717168900332	0
2	291	36.436368895516	0
2	298	36.868770327336	0
2	301	36.888520969654	0.013238002327
2	307	38.436167262308	0
2	312	38.592963184286	0
2	317	39.282782397385	0
2	322	40.802166866402	0
2	329	41.487351254619	0
2	332	41.507101896937	0.018084700044
2	337	41.57159119201	0
2	342	41.654429269999	0
2	347	42.57988616126	0
2	352	43.276878296718	0
2	357	43.366315023572	0
2	362	48.49342338556	0
2	367	50.794130186744	0
2	372	51.39224906983	0
2	377	53.456286209596	0
2	382	53.934364627853	0
2	387	54.189726678482	0
2	392	54.268848383091	0
2	397	54.853987502472	0
2	404	55.386357224476	0
2	407	55.406107866794	0.017714484294
2	412	55.627084007891	0
2	417	55.74332870516	0
2	422	56.510664252265	0
2	427	57.072580273172	0
2	432	60.328686890026	0
2	437	60.394395433672	0
2	442	61.132631888431	0
2	447	61.221439670881	0
2	452	61.479379081756	0
2	458	63.881737604095	0
2	465	63.990628108023	0
2	468	64.010378750341	0.016642126925
2	473	64.472040138503	0
2	478	65.560308355021	0
2	483	65.691181978623	0
2	488	65.715987202248	0
2	493	65.947767762754	0
2	498	66.122812691857	0
2	503	66.196470642661	0
2	508	66.459331392819	0
2	513	68.363049155569	0
2	518	68.630590651585	0
2	523	69.107192321359	0
2	528	69.93285703127	0
2	533	70.843876660352	0
2	538	71.416938257815	0
2	543	71.569460637956	0
2	548	71.723255291324	0
2	553	71.891657559296	0
2	558	71.968905663812	0
2	563	72.169266893638	0
2	568	72.234706875594	0
2	573	72.372288363533	0
2	578	72.814095330778	0
2	583	73.140873696427	0
2	588	73.328929402288	0
2	593	76.18915458052	0
2	598	77.280684504703	0
2	603	77.521172084481	0
2	609	77.888479346996	0
2	614	80.668281014182	0
2	619	81.173156731817	0
2	624	83.016638467632	0
2	629	83.519019933842	0
2	634	84.231263242737	0
2	639	84.880949939475	0
2	644	84.971641037105	0
2	649	85.82931438074	0
2	654	87.212776518101	0
2	659	88.474389181677	0
2	664	89.564477250684	0
2	669	89.71886752567	0
2	674	90.92766665825	0
2	679	93.380855111706	0
2	684	93.993094710737	0
2	689	94.508579601708	0
2	694	94.53595317576	0
2	699	95.468139410185	0
2	704	96.01183677738	0
2	709	97.061858246577	0
2	714	97.365808241749	0
2	719	99.155208778728	0
2	724	99.440497486682	0
2	729	99.992238727699	0
2	734	100.658969047081	0
2	739	102.453414444513	0
2	744	103.70220688003	0
2	749	103.784893366206	0
2	754	104.012648810952	0
2	760	104.18817048505	0
2	765	104.688063547156	0
2	770	104.750659555103	0
2	775	106.010351475242	0
2	780	106.732278435516	0
2	785	107.133530751137	0
2	790	107.371029488122	0
2	795	107.854325808382	0
2	800	108.672333134177	0
2	805	109.66981153789	0
2	810	110.298544836115	0
2	815	111.383221192131	0
2	820	111.535720030117	0
2	825	112.066182536391	0
2	830	112.110181914205	0
2	835	112.83048761884	0
2	840	113.477891056798	0
2	845	113.716444523596	0
2	850	116.796167629856	0
2	855	118.026382333813	0
2	860	120.804855438962	0
2	865	122.285856768958	0
2	870	122.662474099673	0
2	875	123.094990718339	0
2	880	124.386318698441	0
2	885	125.082374929932	0
2	890	125.261296628165	0
2	895	125.483825461796	0
2	900	125.516902272693	0
2	905	126.442826006017	0
2	911	127.051679139181	0
2	916	127.392148190496	0
2	921	127.812779517405	0
2	926	128.115640819215	0
2	931	128.626197479628	0
2	936	129.473468257032	0
2	941	130.108975351118	0
2	946	130.738520306438	0
2	951	131.234202320958	0
2	956	132.56222892838	0
2	961	138.43428040115	0
2	966	139.209227144959	0
2	971	139.562449985395	0
2	976	140.200421308426	0
2	981	140.608098409632	0
2	986	141.285233016638	0
2	991	141.361445230031	0
2	996	141.5752462858	0
2	1001	142.254691642083	0
2	1006	142.635903133418	0
2	1011	142.973847098915	0
2	1016	144.114159117592	0
2	1021	145.882661177434	0
2	1026	146.286458092175	0
2	1031	146.348428728963	0
2	1036	146.373486428249	0
2	1041	147.955266320608	0
2	1046	148.577114150596	0
2	1051	149.462787470957	0
2	1056	149.699530500828	0
2	1062	150.597405441798	0
2	1067	151.985256690229	0
2	1072	152.88426256696	0
2	1077	153.194244957742	0
2	1082	153.427999714879	0
2	1087	154.5831267061	0
2	1092	155.755562842808	0
2	1097	157.174094583815	0
2	1104	157.991784305477	0
2	1107	158.011534947795	0.019547089898
2	1112	158.37909561528	0
2	1117	159.507368252263	0
2	1122	161.161581166445	0
2	1127	161.413584635239	0
2	1132	162.613945429474	0
2	1137	163.02939447525	0
2	1142	163.778783408605	0
2	1147	164.028097543927	0
2	1152	164.076498964266	0
2	1157	165.390776761174	0
2	1162	165.989322217064	0
2	1167	167.1564144543	0
2	1172	167.594646260507	0
2	1177	167.861092233133	0
2	1182	169.677207323523	0
2	1187	169.811241994331	0
2	1192	169.835869963984	0
2	1197	169.999885755808	0
2	1202	170.622767785344	0
2	1207	171.647310842209	0
2	1213	171.901778195693	0
2	1218	173.278563367373	0
2	1223	173.596161565743	0
2	1228	174.421297498097	0
2	1233	174.685383006197	0
2	1238	174.758599307014	0
2	1245	175.13053880541	0
2	1248	175.150289447728	0.008104910544
2	1253	176.076964355288	0
2	1258	177.798888028861	0
2	1263	180.07927846611	0
2	1268	181.249325688211	0
2	1273	181.670758836478	0
2	1278	182.240812559145	0
2	1283	183.206657287883	0
2	1288	185.25749205526	0
2	1293	186.446640644895	0
2	1298	186.686521374884	0
2	1303	186.874588927309	0
2	1308	186.989238260454	0
2	1313	188.288165498091	0
2	1318	189.483738711485	0
2	1323	190.541041396518	0
2	1328	190.567376528212	0
2	1333	191.455704943959	0
2	1338	191.80123425308	0
2	1343	192.518481085297	0
2	1348	192.970107673648	0
2	1353	195.822840626028	0
2	1358	198.136320888648	0
2	1366	198.360170170298	0
2	1369	198.379920812616	0.007930034159
2	1374	199.380321365814	0
2	1379	199.844424423312	0
2	1384	200.722309265768	0
2	1389	200.746400041921	0
2	1394	201.133210435206	0
2	1399	201.626069598354	0
2	1404	202.396810757028	0
2	1409	202.998028335837	0
2	1414	203.778609893159	0
2	1419	203.834315516748	0
2	1424	204.435261045949	0
2	1429	205.777950391433	0
2	1434	206.907499185329	0
2	1439	208.865361570385	0
2	1444	209.597874854954	0
2	1449	209.617960543128	0
2	1454	212.658584319934	0
2	1459	214.07284693766	0
2	1464	214.428296422825	0
2	1469	215.717403930823	0
2	1474	215.945281737068	0
2	1479	216.474125435934	0
2	1484	216.707143981082	0
2	1489	216.736673938662	0
2	1494	216.985770242648	0
2	1499	217.141208291951	0
2	1504	218.295583015574	0
2	1509	218.45908828663	0
2	1515	220.158330502648	0
2	1520	221.494247354294	0
2	1525	221.84468492324	0
2	1530	224.121313605573	0
2	1535	224.387320389713	0
2	1540	224.861098073792	0
2	1545	225.201502886995	0
2	1550	225.23358396677	0
2	1555	225.703399537155	0
2	1560	225.895162147231	0
2	1565	226.126588962308	0
2	1570	226.196506956729	0
2	1575	226.288103917092	0
2	1580	227.724826823523	0
2	1585	227.89190266592	0
2	1590	228.305953232275	0
2	1595	229.704522119956	0
2	1600	229.739459365923	0
2	1605	231.696805993166	0
2	1610	232.511685659695	0
2	1615	232.694670264771	0
2	1620	233.015047848071	0
2	1625	234.825172271133	0
2	1630	235.56328096769	0
2	1635	236.016971751584	0
2	1640	236.536152103694	0
2	1645	237.280351945892	0
2	1650	237.703166434654	0
2	1655	237.780898567374	0
2	1660	238.245343256108	0
2	1668	238.404238215813	0.1343921733
2	1671	238.423988858131	0.105493545141
2	1676	238.600046649013	0
2	1681	238.648417549641	0
2	1686	238.99767014743	0
2	1691	239.058551567689	0
2	1696	240.391823275342	0
2	1701	240.545326227127	0
2	1706	240.657651178586	0
2	1711	241.491126902734	0
2	1716	241.634989294209	0
2	1721	241.695495554944	0
2	1726	241.727721724319	0
2	1731	243.427410542113	0
2	1738	243.460391476736	0
2	1741	243.480142119054	0.016876905745
2	1746	243.925824292933	0
2	1751	244.153616224393	0
2	1756	246.653888043101	0
2	1761	248.162482399102	0
2	1766	248.244133752976	0
2	1771	248.630642576642	0
2	1776	249.036872975141	0
2	1781	249.295551441651	0
2	1786	249.955228386781	0
2	1791	250.118293106561	0
2	1796	250.389946208759	0
2	1801	251.068001679275	0
2	1806	251.711421086447	0
2	1811	253.654486955836	0
2	1817	254.281164102385	0
2	1822	254.98407818265	0
2	1827	255.456721989063	0
2	1832	256.132824996743	0
2	1837	256.338015217739	0
2	1842	257.34064892473	0
2	1847	257.429554433526	0
2	1852	258.221999681831	0
2	1857	258.357026066617	0
2	1862	258.636301305027	0
2	1867	258.695167920645	0
2	1872	260.071124683209	0
2	1877	260.711846079022	0
2	1882	261.030275264217	0
2	1887	261.54955112016	0
2	1892	265.176235654436	0
2	1897	267.982612274456	0
2	1902	268.255848644832	0
2	1909	268.283872696842	0
2	1912	268.30362333916	0.013311896454
2	1917	268.988714611	0
2	1922	270.904950717605	0
2	1927	271.578737728949	0
2	1932	271.933500737533	0
2	1937	272.396360177332	0
2	1942	274.392861070615	0
2	1947	274.637812301415	0
2	1952	275.315244944289	0
2	1957	275.461717276069	0
2	1962	275.948430497492	0
2	1968	276.937946268647	0
2	1973	278.586721546114	0
2	1978	279.146074796832	0
2	1983	279.511745988542	0
2	1988	279.534231912488	0
2	1993	281.175908883122	0
2	1998	281.606882028112	0
2	2003	282.112732649284	0
2	2008	284.441562195925	0
2	2013	284.573821254867	0
2	2018	284.825117172053	0
2	2023	285.367259281416	0
2	2028	285.976831943477	0
2	2033	286.722005185137	0
2	2038	287.080430298867	0
2	2043	287.296269811872	0
2	2048	287.697721584707	0
2	2053	288.054011403456	0
2	2058	291.650031904699	0
2	2063	292.539640822233	0
2	2068	292.973432505513	0
2	2073	293.343064188007	0
2	2078	294.491094815422	0
2	2083	294.61383243789	0
2	2088	296.400594547086	0
2	2093	297.957291808701	0
2	2098	299.447919100122	0
2	2103	299.766335002624	0
2	2108	299.819935250538	0
2	2113	300.969527854859	0
2	2119	303.362805818497	0
2	2124	303.669937785626	0
2	2129	304.846283915064	0
2	2134	305.489818888115	0
2	2139	306.543191923061	0
2	2144	306.634093211648	0
2	2149	308.120630019438	0
2	2154	309.839227185321	0
2	2159	310.323189357215	0
2	2164	311.883555664331	0
2	2169	311.928440407427	0
2	2174	313.117582884486	0
2	2179	315.251714401909	0
2	2184	316.495001920838	0
2	2189	316.79086158211	0
2	2194	316.926345153735	0
2	2199	317.465749747317	0
2	2204	317.696227389517	0
2	2209	318.133951800384	0
2	2214	318.211758602736	0
2	2219	319.129851060039	0
2	2224	320.796512553588	0
2	2229	320.884859730713	0
2	2234	321.312127887639	0
2	2239	322.096763533738	0
2	2244	323.056506914134	0
2	2251	325.366898905306	0
2	2254	325.386649547624	0.019273415271
2	2259	325.419054909792	0
2	2264	326.306876165097	0
2	2270	326.990307103845	0
2	2275	327.629670247968	0
2	2280	327.732754791286	0
2	2285	327.825345278923	0
2	2290	328.961064143217	0
2	2295	329.009184361174	0
2	2300	329.31471637763	0
2	2305	329.726998079992	0
2	2310	330.11033535108	0
2	2315	330.448505248535	0
2	2320	330.767492476709	0
2	2325	330.827785433299	0
2	2330	331.255770704417	0
2	2335	331.569951516255	0
2	2340	332.908153939039	0
2	2345	333.049666169067	0
2	2350	333.589494504632	0
2	2355	334.153766458509	0
2	2360	335.139326088168	0
2	2365	335.394131648159	0
2	2370	336.395233402177	0
2	2375	337.573252107098	0
2	2380	337.750645058599	0
2	2385	338.486322918107	0
2	2390	339.756424187276	0
2	2395	340.475682485818	0
2	2400	340.804899301386	0
2	2405	341.102425443693	0
2	2410	343.339122790014	0
2	2417	343.935421770339	0
2	2421	344.094316730044	0.147039911952
2	2426	346.718525628251	0
2	2431	348.195452984672	0
2	2436	348.60405520355	0
2	2441	348.968456964681	0
2	2446	350.438595018123	0
2	2451	350.925291703618	0
2	2456	352.657918212256	0
2	2461	352.744209290128	0
2	2466	352.787249715249	0
2	2471	353.068439817267	0
2	2476	353.740770010458	0
2	2481	353.788270097851	0
2	2486	354.316179523998	0
2	2491	354.514507595533	0
2	2496	354.920521059896	0
2	2501	354.97737796885	0
2	2506	356.021175547482	0
2	2511	357.099301876717	0
2	2516	358.098632214004	0
2	2521	360.248285575089	0
2	2526	361.478449440371	0
2	2531	361.803260390604	0
2	2536	362.102536340008	0
2	2541	362.228709479956	0
2	2546	364.702757501105	0
2	2551	366.451961455065	0
2	2556	368.06711345473	0
2	2561	368.772757301519	0
2	2566	370.150251742999	0
2	2572	370.772962118018	0
2	2577	371.02525504603	0
2	2582	371.150910386529	0
2	2587	371.271338424827	0
2	2592	372.374796768365	0
2	2597	373.432748204086	0
2	2602	373.536897445261	0
2	2607	373.969910879849	0
2	2612	374.398885292092	0
2	2617	375.948767528809	0
2	2622	378.059574505539	0
2	2627	378.601256566516	0
2	2632	378.882381747395	0
2	2637	379.698036406139	0
2	2642	379.885891038842	0
2	2647	379.937614140664	0
2	2652	380.324352549844	0
2	2657	380.745009100859	0
2	2662	381.180494975531	0
2	2667	382.057465798301	0
2	2672	384.88302039503	0
2	2677	385.816608950474	0
2	2682	385.976607595429	0
2	2687	386.297294044602	0
2	2692	388.908100609889	0
2	2697	389.855709372087	0
2	2702	390.016426733321	0
2	2707	391.046321034865	0
2	2712	391.85244936304	0
2	2717	392.447234825088	0
2	2723	393.160574073898	0
2	2728	394.23942739247	0
2	2733	394.564301960924	0
2	2738	394.836630368114	0
2	2743	396.144462807847	0
2	2748	398.127621520891	0
2	2753	399.254919396425	0
2	2758	399.305335120674	0
2	2763	400.978823345181	0
2	2768	402.808336629211	0
2	2773	403.042251897161	0
2	2778	403.210959802478	0
2	2783	405.151611952966	0
2	2788	405.5122091331	0
2	2793	405.788417966164	0
2	2800	406.202013278266	0
2	2803	406.221763920584	0.015518214246
2	2808	406.260271656717	0
2	2813	406.339517289173	0
2	2818	406.634414619504	0
2	2823	406.682815937511	0
2	2828	407.34681329077	0
2	2833	407.592399076422	0
2	2838	408.720898505341	0
2	2843	409.162963784839	0
2	2848	409.639004554806	0
2	2853	410.297550911056	0
2	2858	410.373256271619	0
2	2863	410.520707874415	0
2	2868	411.461598092771	0
2	2874	413.589097589971	0
2	2879	413.731736089194	0
2	2884	413.949226060938	0
2	2889	414.184306648839	0
2	2894	414.36763024607	0
2	2899	419.842355077936	0
2	2904	420.17486843535	0
2	2909	420.373327450019	0
2	2914	420.896289371973	0
2	2919	421.484613949221	0
2	2924	423.44935413251	0
2	2929	426.119843136553	0
2	2934	426.210936095273	0
2	2939	426.798392521272	0
2	2944	426.924028661903	0
2	2949	427.109127847537	0
2	2954	428.063478092165	0
2	2959	429.582327765486	0
2	2964	430.278347808413	0
2	2969	430.747242876786	0
2	2974	432.195732904992	0
2	2979	432.824717521382	0
2	2984	433.033930965742	0
2	2989	433.847386965946	0
2	2994	434.634617919828	0
2	2999	435.491457887697	0
2	3004	437.053016360935	0
2	3009	437.903095036011	0
2	3014	438.864745338867	0
2	3019	440.117533174916	0
2	3025	440.795659740203	0
2	3030	441.546896579323	0
2	3035	443.50989946123	0
2	3040	444.053113084634	0
2	3045	445.898030466399	0
2	3050	446.982437199479	0
2	3055	448.21419767056	0
2	3060	448.728761575307	0
2	3065	449.318505467925	0
2	3070	450.838794282604	0
2	3075	451.489675274174	0
2	3080	452.773266116706	0
2	3085	452.843924925519	0
2	3090	453.604653433094	0
2	3095	454.613843473782	0
2	3100	456.263918323908	0
2	3105	456.6353988663	0
2	3110	457.748125279255	0
2	3115	458.053234256778	0
2	3120	458.57890307212	0
2	3125	461.206181276543	0
2	3130	461.546070974705	0
2	3137	462.19312010275	0
2	3140	462.212870745068	0.001637741307
2	3145	462.387745808044	0
2	3150	463.995026030735	0
2	3155	464.027880163113	0
2	3160	465.981946860462	0
2	3165	466.966357905527	0
2	3170	467.608901163233	0
2	3176	468.709977837688	0
2	3181	468.762998860532	0
2	3186	469.289728624254	0
2	3191	469.568497345216	0
2	3196	470.402932330842	0
2	3201	471.491840153771	0
2	3206	476.199953128248	0
2	3211	476.83201361966	0
2	3216	477.056811915852	0
2	3221	477.121537122589	0
2	3226	478.405977023302	0
2	3231	478.439454493483	0
2	3236	478.476434466499	0
2	3241	478.613519804588	0
2	3246	480.063313573911	0
2	3251	480.398864148003	0
2	3256	481.130069308082	0
2	3261	481.651160096248	0
2	3266	481.954348505902	0
2	3271	483.069138822648	0
2	3278	483.987642104568	0
2	3283	484.007392746886	0.006786614798
2	3286	484.027143389204	0.004022080929
2	3291	485.908766891629	0
2	3296	486.543986957384	0
2	3301	486.80788453099	0
2	3306	486.950601063956	0
2	3311	487.93985094802	0
2	3316	488.091084457041	0
2	3321	488.754145958192	0
2	3327	489.269324546697	0
2	3332	489.627590860058	0
2	3337	489.732464205162	0
2	3342	489.934532395889	0
2	3347	491.87152113896	0
2	3352	492.763817153376	0
2	3357	493.602655043503	0
2	3362	495.886844185602	0
2	3367	496.94587728064	0
2	3372	497.250303757091	0
2	3377	497.741284081857	0
2	3382	500.713137178825	0
2	3387	500.783876552897	0
2	3392	503.46561778469	0
2	3397	505.187395638863	0
2	3402	505.670034086509	0
2	3407	506.852909526716	0
2	3412	507.602414384281	0
2	3417	507.665557072987	0
2	3422	508.445825016903	0
2	3427	508.991937621146	0
2	3432	509.029597805753	0
2	3437	509.282313952078	0
2	3442	510.010139380552	0
2	3447	510.086971596334	0
2	3452	510.603170037833	0
2	3457	511.224820136026	0
2	3462	512.836216726087	0
2	3467	513.554120556026	0
2	3472	513.619264253085	0
2	3478	513.77815921279	0.046431395169
2	3483	514.437748421757	0
2	3488	516.193664343266	0
2	3493	518.490738321635	0
2	3498	518.773587308885	0
2	3503	521.387859875117	0
2	3508	522.766683287007	0
2	3513	522.859930623163	0
2	3518	523.231606569354	0
2	3523	525.088255768593	0
2	3528	525.712702927501	0
2	3533	525.963706786512	0
2	3538	526.433984755608	0
2	3543	528.644389825218	0
2	3548	529.611296939786	0
2	3553	530.680020350413	0
2	3558	531.688122047856	0
2	3563	532.142927605406	0
2	3568	533.071304920682	0
2	3573	533.433455388481	0
2	3578	533.540181131314	0
2	3583	534.18308633889	0
2	3588	535.591814864262	0
2	3593	535.750712611741	0
2	3598	536.199154235706	0
2	3603	536.305024502265	0
2	3608	537.320054945615	0
2	3613	537.484426517457	0
2	3618	537.923673084344	0
2	3623	538.035460839392	0
2	3629	538.194355799097	0.122202280523
2	3636	538.439416243879	0
2	3639	538.459166886197	0.01781441396
2	3644	538.628244636702	0
2	3649	538.812073992735	0
2	3654	541.307087001488	0
2	3659	541.457455642536	0
2	3664	541.607683043059	0
2	3669	541.662942752095	0
2	3674	541.863624926827	0
2	3681	541.925039425973	0
2	3684	541.944790068291	0.011618244451
2	3689	542.352923057508	0
2	3694	542.445226271182	0
2	3699	543.268360807531	0
2	3704	543.770372076079	0
2	3709	544.014822434264	0
2	3714	544.671812623894	0
2	3719	545.433874616002	0
2	3724	545.876981642952	0
2	3729	546.417602276874	0
2	3734	547.464132407982	0
2	3739	548.269358376766	0
2	3744	548.969534725637	0
2	3749	550.807925675936	0
2	3754	550.891014475216	0
2	3759	552.751989615369	0
2	3764	552.828998013719	0
2	3769	552.922347375251	0
2	3774	553.53125382764	0
2	3780	554.220186328856	0
2	3785	556.260951702965	0
2	3790	556.430390597683	0
2	3795	556.564618117656	0
2	3800	557.480014953597	0
2	3805	557.555391324439	0
2	3810	558.156512070395	0
2	3815	558.616463251233	0
2	3820	559.640539625754	0
2	3825	560.536388848647	0
2	3830	560.69179009395	0
2	3835	561.144690779783	0
2	3840	561.181720982841	0
2	3845	564.4499643913	0
2	3850	564.940093442575	0
2	3855	566.366535270072	0
2	3860	566.773469268706	0
2	3865	567.303783013291	0
2	3870	568.477719517151	0
2	3875	568.555688454291	0
2	3880	568.932181462166	0
2	3885	569.660114336774	0
2	3890	571.908981471698	0
2	3895	572.385365615768	0
2	3900	573.057127572921	0
2	3905	575.597931703287	0
2	3910	576.051144267795	0
2	3915	577.474833885764	0
2	3920	577.639174531444	0
2	3925	577.708519138605	0
2	3931	578.256576285295	0
2	3936	579.159686099969	0
2	3941	579.371519432738	0
2	3946	579.515662177273	0
2	3951	581.307426139063	0
2	3956	582.677680126978	0
2	3961	583.106718996767	0
2	3966	583.191319089342	0
2	3971	583.449559015875	0
2	3976	585.689961364935	0
2	3981	585.861247129986	0
2	3986	587.674015377412	0
2	3991	588.079887239576	0
2	3996	588.216705265778	0
2	4001	588.480317718287	0
2	4006	588.684549131761	0
2	4011	591.232497930097	0
2	4016	592.028587555302	0
2	4021	592.983045342745	0
2	4026	593.465193333299	0
2	4031	593.512938692636	0
2	4036	593.650292959295	0
2	4041	593.697401143245	0
2	4046	594.100225349119	0
2	4051	595.332053114767	0
2	4056	596.464521915159	0
2	4061	597.038497161153	0
2	4066	597.143123937566	0
2	4073	597.449321389958	0
2	4076	597.469072032276	0.014719390722
2	4082	598.682809239569	0
2	4087	599.696630300889	0
2	4092	601.040889192844	0
2	4097	601.410325297088	0
2	4102	602.056827870288	0
2	4107	602.098022330656	0
2	4112	602.61834556507	0
2	4117	602.641066055885	0
2	4122	603.517525390623	0
2	4127	603.764847109293	0
2	4134	604.416597636521	0
2	4137	604.436348278839	0.01049517859
2	4142	605.045569994756	0
2	4147	606.554955632058	0
2	4152	606.906662497055	0
2	4157	607.639638630722	0
2	4162	608.625314421363	0
2	4167	609.32687171136	0
2	4172	609.793537347983	0
2	4177	610.058035862087	0
2	4182	611.222884484174	0
2	4187	611.275382834715	0
2	4192	611.823733629868	0
2	4197	612.828274339563	0
2	4202	613.818607032347	0
2	4207	613.945208625887	0
2	4212	614.430099781625	0
2	4217	615.433441698199	0
2	4222	615.496810402059	0
2	4227	615.558024458319	0
2	4233	616.508147968396	0
2	4238	617.295390642237	0
2	4243	617.636238799247	0
2	4248	618.663138790232	0
2	4253	620.633009228406	0
2	4258	621.443959000321	0
2	4263	622.144511021388	0
2	4268	622.670557795638	0
2	4273	623.051118050662	0
2	4278	624.226814661851	0
2	4283	625.599899086413	0
2	4288	626.167089190023	0
2	4293	627.60335295033	0
2	4298	628.143240175588	0
2	4303	629.688099879173	0
2	4308	630.836150269007	0
2	4313	631.058016797173	0
2	4318	631.64033802919	0
2	4323	631.896516285297	0
2	4328	631.951612455932	0
2	4333	632.179739324769	0
2	4338	632.34478583817	0
2	4343	632.925716025091	0
2	4348	633.051611489817	0
2	4353	633.18116986991	0
2	4358	634.821247474798	0
2	4363	634.913349465648	0
2	4368	635.306976113116	0
2	4373	638.184299775074	0
2	4378	638.355964905226	0
2	4384	638.756457598501	0
2	4391	639.212671073757	0
2	4394	639.232421716075	0.010017581768
2	4399	639.754952403026	0
2	4404	639.790884511072	0
2	4409	639.980007034784	0
2	4414	640.04950070482	0
2	4419	641.738551698567	0
2	4426	641.853335108854	0
2	4429	641.873085751172	0.008826816032
2	4434	642.047680303143	0
2	4439	642.992400982357	0
2	4444	643.218159686684	0
2	4449	643.435706954243	0
2	4454	644.288102164588	0
2	4459	644.947288104769	0
2	4464	645.715978313756	0
[...]
7	3332	489.627590860058	0
7	3337	489.732464205162	0
7	3342	489.934532395889	0
7	3347	491.87152113896	0
7	3352	492.763817153376	0
7	3357	493.602655043503	0
7	3362	495.886844185602	0
7	3367	496.94587728064	0
7	3372	497.250303757091	0
7	3377	497.741284081857	0
7	3382	500.713137178825	0
7	3387	500.783876552897	0
7	3392	503.46561778469	0
7	3397	505.187395638863	0
7	3402	505.670034086509	0
7	3407	506.852909526716	0
7	3412	507.602414384281	0
7	3417	507.665557072987	0
7	3422	508.445825016903	0
7	3427	508.991937621146	0
7	3432	509.029597805753	0
7	3437	509.282313952078	0
7	3442	510.010139380552	0
7	3447	510.086971596334	0
7	3452	510.603170037833	0
7	3457	511.224820136026	0
7	3462	512.836216726087	0
7	3467	513.554120556026	0
7	3472	513.619264253085	0
7	3478	513.77815921279	0
7	3483	514.437748421757	0
7	3488	516.193664343266	0
7	3493	518.490738321635	0
7	3498	518.773587308885	0
7	3503	521.387859875117	0
7	3508	522.766683287007	0
7	3513	522.859930623163	0
7	3518	523.231606569354	0
7	3523	525.088255768593	0
7	3528	525.712702927501	0
7	3533	525.963706786512	0
7	3538	526.433984755608	0
7	3543	528.644389825218	0
7	3548	529.611296939786	0
7	3553	530.680020350413	0
7	3558	531.688122047856	0
7	3563	532.142927605406	0
7	3568	533.071304920682	0
7	3573	533.433455388481	0
7	3578	533.540181131314	0
7	3583	534.18308633889	0
7	3588	535.591814864262	0
7	3593	535.750712611741	0
7	3598	536.199154235706	0
7	3603	536.305024502265	0
7	3608	537.320054945615	0
7	3613	537.484426517457	0
7	3618	537.923673084344	0
7	3623	538.035460839392	0
7	3629	538.194355799097	0
7	3636	538.439416243879	0
7	3639	538.459166886197	0
7	3644	538.628244636702	0
7	3649	538.812073992735	0
7	3654	541.307087001488	0
7	3659	541.457455642536	0
7	3664	541.607683043059	0
7	3669	541.662942752095	0
7	3674	541.863624926827	0
7	3681	541.925039425973	0
7	3684	541.944790068291	0
7	3689	542.352923057508	0
7	3694	542.445226271182	0
7	3699	543.268360807531	0
7	3704	543.770372076079	0
7	3709	544.014822434264	0
7	3714	544.671812623894	0
7	3719	545.433874616002	0
7	3724	545.876981642952	0
7	3729	546.417602276874	0
7	3734	547.464132407982	0
7	3739	548.269358376766	0
7	3744	548.969534725637	0
7	3749	550.807925675936	0
7	3754	550.891014475216	0
7	3759	552.751989615369	0
7	3764	552.828998013719	0
7	3769	552.922347375251	0
7	3774	553.53125382764	0
7	3780	554.220186328856	0
7	3785	556.260951702965	0
7	3790	556.430390597683	0
7	3795	556.564618117656	0
7	3800	557.480014953597	0
7	3805	557.555391324439	0
7	3810	558.156512070395	0
7	3815	558.616463251233	0
7	3820	559.640539625754	0
7	3825	560.536388848647	0
7	3830	560.69179009395	0
7	3835	561.144690779783	0
7	3840	561.181720982841	0
7	3845	564.4499643913	0
7	3850	564.940093442575	0
7	3855	566.366535270072	0
7	3860	566.773469268706	0
7	3865	567.303783013291	0
7	3870	568.477719517151	0
7	3875	568.555688454291	0
7	3880	568.932181462166	0
7	3885	569.660114336774	0
7	3890	571.908981471698	0
7	3895	572.385365615768	0
7	3900	573.057127572921	0
7	3905	575.597931703287	0
7	3910	576.051144267795	0
7	3915	577.474833885764	0
7	3920	577.639174531444	0
7	3925	577.708519138605	0
7	3931	578.256576285295	0
7	3936	579.159686099969	0
7	3941	579.371519432738	0
7	3946	579.515662177273	0
7	3951	581.307426139063	0
7	3956	582.677680126978	0
7	3961	583.106718996767	0
7	3966	583.191319089342	0
7	3971	583.449559015875	0
7	3976	585.689961364935	0
7	3981	585.861247129986	0
7	3986	587.674015377412	0
7	3991	588.079887239576	0
7	3996	588.216705265778	0
7	4001	588.480317718287	0
7	4006	588.684549131761	0
7	4011	591.232497930097	0
7	4016	592.028587555302	0
7	4021	592.983045342745	0
7	4026	593.465193333299	0
7	4031	593.512938692636	0
7	4036	593.650292959295	0
7	4041	593.697401143245	0
7	4046	594.100225349119	0
7	4051	595.332053114767	0
7	4056	596.464521915159	0
7	4061	597.038497161153	0
7	4066	597.143123937566	0
7	4073	597.449321389958	0
7	4076	597.469072032276	0
7	4082	598.682809239569	0
7	4087	599.696630300889	0
7	4092	601.040889192844	0
7	4097	601.410325297088	0
7	4102	602.056827870288	0
7	4107	602.098022330656	0
7	4112	602.61834556507	0
7	4117	602.641066055885	0
7	4122	603.517525390623	0
7	4127	603.764847109293	0
7	4134	604.416597636521	0
7	4137	604.436348278839	0
7	4142	605.045569994756	0
7	4147	606.554955632058	0
7	4152	606.906662497055	0
7	4157	607.639638630722	0
7	4162	608.625314421363	0
7	4167	609.32687171136	0
7	4172	609.793537347983	0
7	4177	610.058035862087	0
7	4182	611.222884484174	0
7	4187	611.275382834715	0
7	4192	611.823733629868	0
7	4197	612.828274339563	0
7	4202	613.818607032347	0
7	4207	613.945208625887	0
7	4212	614.430099781625	0
7	4217	615.433441698199	0
7	4222	615.496810402059	0
7	4227	615.558024458319	0
7	4233	616.508147968396	0
7	4238	617.295390642237	0
7	4243	617.636238799247	0
7	4248	618.663138790232	0
7	4253	620.633009228406	0
7	4258	621.443959000321	0
7	4263	622.144511021388	0
7	4268	622.670557795638	0
7	4273	623.051118050662	0
7	4278	624.226814661851	0
7	4283	625.599899086413	0
7	4288	626.167089190023	0
7	4293	627.60335295033	0
7	4298	628.143240175588	0
7	4303	629.688099879173	0
7	4308	630.836150269007	0
7	4313	631.058016797173	0
7	4318	631.64033802919	0
7	4323	631.896516285297	0
7	4328	631.951612455932	0
7	4333	632.179739324769	0
7	4338	632.34478583817	0
7	4343	632.925716025091	0
7	4348	633.051611489817	0
7	4353	633.18116986991	0
7	4358	634.821247474798	0
7	4363	634.913349465648	0
7	4368	635.306976113116	0
7	4373	638.184299775074	0
7	4378	638.355964905226	0
7	4384	638.756457598501	0
7	4391	639.212671073757	0
7	4394	639.232421716075	0
7	4399	639.754952403026	0
7	4404	639.790884511072	0
7	4409	639.980007034784	0
7	4414	640.04950070482	0
7	4419	641.738551698567	0
7	4426	641.853335108854	0
7	4429	641.873085751172	0
7	4434	642.047680303143	0
7	4439	642.992400982357	0
7	4444	643.218159686684	0
7	4449	643.435706954243	0
7	4454	644.288102164588	0
7	4459	644.947288104769	0
7	4464	645.715978313756	0
7	4469	646.46972482234	0
7	4474	646.763726462864	0
7	4479	646.842264369975	0
7	4484	647.139381084113	0
7	4489	647.421441740036	0
7	4494	648.017250723663	0
7	4499	648.26548305115	0
7	4504	648.68047039762	0
7	4509	649.895739183262	0
7	4514	651.416209125024	0
7	4519	653.328710780175	0
7	4524	653.943817657209	0
7	4529	656.99839937233	0
7	4535	658.319112696826	0
7	4540	659.63404476291	0
7	4545	659.905063289309	0
7	4550	660.315648198602	0
7	4555	660.662070773377	0
7	4560	660.739296293468	0
7	4565	660.990410983589	0
7	4570	663.279887322462	0
7	4575	663.370868882633	0
7	4580	663.984698641704	0
7	4585	665.069699869235	0
7	4590	666.072241185098	0
7	4595	666.248614196041	0
7	4600	666.462358060761	0
7	4607	666.606931260098	0
7	4610	666.626681902416	0
7	4615	668.061388374025	0
7	4620	668.395605920068	0
7	4625	670.662227012744	0
7	4630	670.816860097355	0
7	4635	671.059965952136	0
7	4640	671.273139857742	0
7	4645	671.504975692996	0
7	4650	671.865894690277	0
7	4655	673.597990267783	0
7	4660	674.076406762922	0
7	4665	675.90655895157	0
7	4670	677.782453306014	0
7	4675	678.400582674032	0
7	4680	678.488693567312	0
7	4686	678.772338576756	0
7	4691	680.776397085795	0
7	4696	680.831384653908	0
7	4703	681.663173527045	0
7	4706	681.682924169363	0
7	4711	681.863408676381	0
7	4716	681.945467021768	0
7	4721	682.660534550153	0
7	4726	683.87841321774	0
7	4731	684.322295625339	0
7	4736	684.557013349642	0
7	4741	684.854363074561	0
7	4746	685.317325942126	0
7	4751	685.923653298087	0
7	4756	686.813431083558	0
7	4761	686.947965935498	0
7	4766	688.529357322036	0
7	4771	688.80525900698	0
7	4776	689.098936659135	0
7	4781	689.258283225001	0
7	4786	689.855468067313	0
7	4791	689.981349243387	0
7	4796	690.284815787127	0
7	4801	690.653105737708	0
7	4806	690.845191227537	0
7	4811	690.912992086293	0
7	4816	691.400294319264	0
7	4821	691.527670386524	0
7	4826	691.930508467892	0
7	4831	694.670001847467	0
7	4837	697.099286392419	0
7	4842	697.365851222165	0
7	4847	697.724882825698	0
7	4852	698.157478538504	0
7	4857	698.334351517608	0
7	4862	699.030509125355	0
7	4867	699.185894148739	0
7	4872	702.001685257522	0
7	4877	702.716155356325	0
7	4882	704.250513912055	0
7	4887	704.344977513202	0
7	4892	706.06025311465	0
7	4897	706.445000726882	0
7	4902	706.480169518139	0
7	4907	708.505694307067	0
7	4912	708.759501926289	0
7	4917	709.878642472931	0
7	4922	709.936711366085	0
7	4927	710.161563510522	0
7	4932	710.851797671778	0
7	4937	711.145468108817	0
7	4942	712.019080557161	0
7	4947	712.331292148956	0
7	4952	712.846874588282	0
7	4959	713.311806027004	0
7	4962	713.331556669322	0
7	4967	714.048639522277	0
7	4972	714.344783566613	0
7	4977	714.655647526288	0
7	4982	715.39909006477	0
7	4988	715.557985024475	0
7	4995	716.47434760317	0
7	4998	716.494098245488	0
7	5003	717.484194026739	0
7	5008	717.825518665544	0
7	5013	718.798569536113	0
7	5018	719.28840764269	0
7	5023	720.925464871164	0
7	5028	721.918487380832	0
7	5033	722.305236102408	0
7	5038	723.630061680094	0
7	5043	723.800439940078	0
7	5048	724.684532837397	0
7	5053	725.820890255645	0
7	5058	727.396981362163	0
7	5063	728.310989480924	0
7	5068	729.297964778981	0
7	5073	729.437746314739	0
7	5078	729.490651288331	0
7	5083	729.908548186854	0
7	5088	730.039963164276	0
7	5093	730.230772813102	0
7	5098	731.102184935205	0
7	5103	731.266035803502	0
7	5108	733.377266069073	0
7	5113	734.011754563481	0
7	5118	734.454520756444	0
7	5123	734.564898031049	0
7	5128	734.799462425834	0
7	5133	735.646887236296	0
7	5139	735.902839269911	0
7	5144	736.386232086105	0
7	5149	736.698171906966	0
7	5154	737.200813916469	0
7	5159	738.978686464607	0
7	5164	739.074534047832	0
7	5169	739.231626630113	0
7	5174	739.548574631774	0
7	5179	739.773121263792	0
7	5184	741.900715152602	0
7	5189	742.687377793657	0
7	5194	742.762934186721	0
7	5199	743.370773501249	0
7	5204	744.972799494376	0
7	5209	744.992913701349	0
7	5214	746.495458592511	0
7	5219	746.608210289916	0
7	5224	747.614919307036	0
7	5229	747.901739237494	0
7	5234	748.199596866272	0
7	5239	748.230834839577	0
7	5244	749.119466083403	0
7	5249	749.315007119343	0
7	5254	749.725652460582	0
7	5259	752.408538957989	0
7	5264	753.4623071377	0
7	5269	754.420503527798	0
7	5274	754.597124773577	0
7	5279	754.75858950644	0
7	5284	755.035468584087	0
7	5290	755.726661789561	0
7	5295	756.633885649744	0
7	5300	756.724119502009	0
7	5305	757.011223460612	0
7	5310	758.497869334665	0
7	5315	758.752971136584	0
7	5320	758.998114579033	0
7	5325	759.454549519641	0
7	5330	759.646994574207	0
7	5335	761.554659332877	0
7	5340	762.577941593567	0
7	5345	762.657616098803	0
7	5350	763.949705549535	0
7	5355	764.137716770211	0
7	5360	764.660020754828	0
7	5365	766.537507154067	0
7	5370	767.453437079881	0
7	5375	768.262308453963	0
7	5380	769.340286166779	0
7	5385	769.395400240181	0
7	5390	772.298146504609	0
7	5395	772.482819905193	0
7	5400	772.723698994439	0
7	5405	773.258692369581	0
7	5410	773.404380375593	0
7	5415	773.910581155687	0
7	5420	774.671696083509	0
7	5425	774.862617613286	0
7	5430	775.305450414875	0
7	5435	776.670044068875	0
7	5441	778.340089730626	0
7	5446	781.815694026488	0
7	5451	781.97267714563	0
7	5456	782.942000778521	0
7	5461	784.600131036139	0
7	5466	785.040939695812	0
7	5471	785.196523563018	0
7	5476	787.249555999986	0
7	5481	787.935262237391	0
7	5486	788.780741706574	0
7	5491	788.87729269313	0
7	5496	789.168221279241	0
7	5501	789.790265806764	0
7	5506	790.329669112516	0
7	5511	790.781693949276	0
7	5516	791.843877695332	0
7	5521	792.582076651658	0
7	5526	792.84215908986	0
7	5531	793.587199483477	0
7	5536	794.09868265899	0
7	5541	794.506193029026	0
7	5546	795.967647100508	0
7	5551	796.053446863834	0
7	5558	796.879633600757	0
7	5561	796.899384243075	0
7	5566	798.245236437581	0
7	5571	798.421546359918	0
7	5576	799.060135702497	0
7	5581	799.082330169903	0
7	5586	800.283645355027	0
7	5592	800.837484605809	0
7	5597	801.042356829099	0
7	5602	801.273015199258	0
7	5607	802.108013950436	0
7	5612	802.265894108129	0
7	5617	803.398601135357	0
7	5622	803.854327164745	0
7	5627	804.522983176038	0
7	5632	805.608514526121	0
7	5637	806.010596594614	0
7	5642	807.064340292778	0
7	5647	807.54187305642	0
7	5652	809.009537780124	0
7	5657	809.046164539627	0
7	5662	809.546544005589	0
7	5667	812.048121074852	0
7	5672	812.335212673669	0
7	5677	813.714881843875	0
7	5682	814.543666376548	0
7	5687	814.966718388759	0
7	5692	816.016931822228	0
7	5697	817.281189059794	0
7	5702	818.564444487993	0
7	5707	819.04415560237	0
7	5712	819.091184498784	0
7	5717	819.285387883231	0
7	5722	819.423720151235	0
7	5727	819.947418559122	0
7	5732	820.108370595076	0
7	5737	820.749074498891	0
7	5743	821.998207597161	0
7	5748	822.655288059934	0
7	5753	823.770376248237	0
7	5758	825.002820323013	0
7	5763	825.893841925133	0
7	5768	826.07113410487	0
7	5773	828.422618080021	0
7	5778	828.449298526393	0
7	5783	828.63283481602	0
7	5788	828.905519965886	0
7	5793	829.177878513353	0
7	5798	829.952393201262	0
7	5803	829.989493035506	0
7	5808	831.246039565814	0
7	5813	832.483711475368	0
7	5818	832.592922808851	0
7	5823	833.044964748359	0
7	5828	834.987329818437	0
7	5833	835.866727213099	0
7	5838	836.021392422995	0
7	5843	836.642807861722	0
7	5848	838.738788475206	0
7	5853	838.955738815403	0
7	5858	839.535892963734	0
7	5863	839.94467905245	0
7	5868	840.235388299595	0
7	5873	841.140208481934	0
7	5878	841.530619724849	0
7	5883	841.908407725539	0
7	5888	842.067571044859	0
7	5894	842.393697565887	0
7	5899	842.664372114767	0
7	5904	845.327266298609	0
7	5909	845.356880743974	0
7	5914	847.620360771365	0
7	5919	849.968997072068	0
7	5924	850.909224483909	0
7	5929	852.363898805111	0
7	5934	853.873185960522	0
7	5939	854.243921781537	0
7	5944	855.333566928867	0
7	5949	856.030301728849	0
7	5954	856.315639631333	0
7	5959	857.171336216447	0
7	5964	857.258219607638	0
7	5969	858.062844438669	0
7	5974	859.32752866447	0
7	5979	860.10081073055	0
7	5984	860.137745120174	0
7	5989	861.494852533756	0
7	5994	862.6481801742	0
7	5999	865.532802907758	0
7	6004	866.784686664186	0
7	6009	866.811415277244	0
7	6014	867.741142236149	0
7	6019	868.744818735475	0
7	6024	872.419814791537	0
7	6029	873.433720654576	0
7	6034	876.565372678925	0
7	6039	877.049400438518	0
7	6045	878.028177115561	0
7	6050	878.801381324384	0
7	6055	879.175077197561	0
7	6060	879.926489440084	0
7	6065	880.151462762588	0
7	6070	880.840247480758	0
7	6075	883.263257533659	0
7	6080	883.487056321813	0
7	6085	883.521422570589	0
7	6090	884.685538373703	0
7	6095	886.196905517575	0
7	6100	886.290460574975	0
7	6105	886.392621313387	0
7	6110	886.840472912939	0
7	6117	887.623803235542	0
7	6120	887.64355387786	0
7	6125	888.525066733339	0
7	6130	888.868237078414	0
7	6135	890.360787664721	0
7	6140	891.445408341011	0
7	6145	892.88638664131	0
7	6150	894.684718443108	0
7	6155	895.080965784012	0
7	6162	895.397386968968	0
7	6165	895.417137611286	0
7	6170	895.948785364348	0
7	6177	896.267877980491	0
7	6180	896.287628622809	0
7	6187	900.753552305608	0
7	6190	900.773302947926	0
7	6196	901.293789950326	0
7	6201	901.483276262144	0
7	6206	901.744042212542	0
7	6211	901.779997177028	0
7	6216	903.058356630394	0
7	6221	903.236683053858	0
7	6226	903.772982684424	0
7	6231	904.934954636626	0
7	6238	905.795071041269	0
7	6241	905.814821683587	0
7	6246	905.950403410145	0
7	6251	906.168026792458	0
7	6256	906.966031029851	0
7	6261	908.875345612591	0
7	6266	909.006073984814	0
7	6271	909.169553115768	0
7	6276	909.468572400412	0
7	6281	909.698897715304	0
7	6286	910.172335366305	0
7	6291	911.696327236856	0
7	6296	911.753605410479	0
7	6301	912.293587478256	0
7	6306	912.758823373706	0
7	6311	914.381124006225	0
7	6316	914.572763849644	0
7	6321	915.938534522581	0
7	6326	916.174427931907	0
7	6331	916.205236528947	0
7	6336	917.076209140837	0
7	6341	917.920360807696	0
7	6347	918.668844829816	0
7	6352	923.685223139125	0
7	6357	923.816648580219	0
7	6362	924.228482173091	0
7	6367	924.603377701462	0
7	6372	926.066376909661	0
7	6377	927.695794898473	0
7	6382	927.962159873939	0
7	6387	929.502886231583	0
7	6394	929.645186164539	0
7	6397	929.664936806857	0
7	6402	929.948804402742	0
7	6407	931.591112298308	0
7	6412	932.14091976597	0
7	6417	932.779559534117	0
7	6422	932.958895531638	0
7	6427	933.488171622537	0
7	6432	934.758558648386	0
7	6437	935.211479428427	0
7	6442	935.632211105913	0
7	6447	935.755079796994	0
7	6452	936.052844126357	0
7	6457	936.290266529829	0
7	6462	936.650620034197	0
7	6467	938.656253151761	0
7	6474	940.13914186565	0
7	6477	940.158892507968	0
7	6482	940.85238771643	0
7	6487	942.400699035757	0
7	6492	942.470050090501	0
7	6498	943.413967975062	0
7	6503	943.76767182704	0
7	6508	943.887641564993	0
7	6513	944.19500584101	0
7	6518	944.489005389225	0
7	6523	944.906229173902	0
7	6528	946.863536961326	0
7	6533	947.08500711032	0
7	6538	947.845495044732	0
7	6543	948.730487408647	0
7	6548	948.982970983919	0
7	6553	949.376700082078	0
7	6558	951.524368112284	0
7	6563	953.10011183051	0
7	6568	953.972757886137	0
7	6573	954.637097188157	0
7	6578	955.411232181699	0
7	6583	956.351926271472	0
7	6588	956.933561657782	0
7	6593	957.246370235513	0
7	6598	957.300278072212	0
7	6603	957.554802646753	0
7	6608	957.675132081786	0
7	6613	957.900927630214	0
7	6618	962.454436126614	0
7	6623	962.640871718336	0
7	6628	963.063163096151	0
7	6633	963.507063593167	0
7	6638	963.719917750653	0
7	6643	964.525525145727	0
7	6649	964.684420105432	0
7	6654	965.038350756701	0
7	6659	966.562036448605	0
7	6664	969.537884789687	0
7	6669	970.093142359297	0
7	6674	971.909141050763	0
7	6679	972.064256062072	0
7	6684	972.334465742154	0
7	6689	973.19664936856	0
7	6694	973.326128322011	0
7	6699	973.390151177777	0
7	6704	975.315376936701	0
7	6709	976.072556027024	0
7	6714	976.148703881309	0
7	6719	976.936846057655	0
7	6724	978.09678686819	0
7	6731	978.600608316294	0
7	6734	978.620358958612	0
7	6739	979.342854462037	0
7	6744	979.499896417709	0
7	6749	979.663066750621	0
7	6754	979.993470618867	0
7	6759	980.173300592093	0
7	6764	980.531642798396	0
7	6769	981.110055068496	0
7	6774	981.266348459582	0
7	6779	981.975193210468	0
7	6784	982.944520619589	0
7	6789	983.426229076739	0
7	6794	984.166902453738	0
7	6800	985.346297989487	0
7	6805	985.954728872433	0
7	6810	986.139978348469	0
7	6815	987.800672985899	0
7	6820	988.43220982154	0
7	6825	990.194944787723	0
7	6830	990.512027069825	0
7	6835	990.600089805959	0
7	6840	990.676510486904	0
7	6845	992.212472082275	0
7	6850	993.156457449767	0
7	6855	993.777563907096	0
7	6860	994.745067428733	0
7	6865	996.38579332591	0
7	6870	996.785825858141	0
7	6875	997.869297750674	0
7	6880	999.129516919417	0
7	6885	999.18200555277	0
7	6890	999.30766250779	0
8	41	6.317206187528	0.00301360503
8	61	7.909189999236	0.01016127466
8	153	16.306593333755	0.079231081545
8	297	36.868770327336	0.013238002327
8	328	41.487351254619	0.018084700044
8	403	55.386357224476	0.017714484294
8	464	63.990628108023	0.016642126925
8	1103	157.991784305477	0.019547089898
8	1244	175.13053880541	0.008104910544
8	1365	198.360170170298	0.007930034159
8	1665	238.384487573495	0.1343921733
8	1667	238.404238215813	0.105493545141
8	1737	243.460391476736	0.016876905745
8	1908	268.283872696842	0.013311896454
8	2250	325.366898905306	0.019273415271
8	2418	344.074566087726	0.147039911952
8	2799	406.202013278266	0.015518214246
8	3136	462.19312010275	0.001637741307
8	3277	483.987642104568	0.006786614798
8	3282	484.007392746886	0.004022080929
8	3475	513.758408570472	0.046431395169
8	3626	538.174605156779	0.122202280523
8	3635	538.439416243879	0.01781441396
8	3680	541.925039425973	0.011618244451
8	4072	597.449321389958	0.014719390722
8	4133	604.416597636521	0.01049517859
8	4390	639.212671073757	0.010017581768
8	4425	641.853335108854	0.008826816032
8	4606	666.606931260098	0.013768184991
8	4702	681.663173527045	0.013132421181
8	4958	713.311806027004	0.005614185769
8	4985	715.538234382157	0.084929388239
8	4994	716.47434760317	0.018536091673
8	5557	796.879633600757	0.006891374154
8	6116	887.623803235542	0.013633049189
8	6161	895.397386968968	0.012127813315
8	6176	896.267877980491	0.017575183425
8	6186	900.753552305608	0.010258327128
8	6237	905.795071041269	0.015608100561
8	6393	929.645186164539	0.013179210933
8	6473	940.13914186565	0.017220589932
8	6646	964.664669463114	0.116048876285
8	6730	978.600608316294	0.010887617659

